/batch
/config,noeldb,1     ! force off writing results to database
*get,_wallstrt,active,,time,wall
! ANSYS input file written by Workbench version 2021 R1
! File used for geometry attach: C:\Users\vinig\Desktop\codes\TCC-assets\programas\ansys\simulacao_FE_files\dp0\SYS\DM\SYS.agdb
/title,simulacao_FE--Modal (A5)
! ****** Begin Custom Load Command Snippet ******
/COM, ACT Extensions:
/COM,     LSDYNA, 2021.1
/COM,     5f463412-bd3e-484b-87e7-cbc0a665e474, wbex
/COM,/COM,     MechanicalDropTest, 2.0
/COM,     f0fd899f-9d88-4f46-8cf1-36bf5c218d65, wbex
/COM,
! ****** End   Custom Load Command Snippet ******
*DIM,_wb_ProjectScratch_dir,string,248
_wb_ProjectScratch_dir(1) = 'C:\Users\vinig\Desktop\codes\TCC-assets\programas\ansys\_ProjectScratch\Scr98B2\'
*DIM,_wb_SolverFiles_dir,string,248
_wb_SolverFiles_dir(1) = 'C:\Users\vinig\Desktop\codes\TCC-assets\programas\ansys\simulacao_FE_files\dp0\SYS\MECH\'
*DIM,_wb_userfiles_dir,string,248
_wb_userfiles_dir(1) = 'C:\Users\vinig\Desktop\codes\TCC-assets\programas\ansys\simulacao_FE_files\user_files\'
/com,--- Data in consistent MKS units. See Solving Units in the help system for more information.
/units,MKS
/nopr
/wb,file,start              !  signify a WB generated input file
/prep7
! Turn off shape checking because checks already performed inside WB mesher.
! See help system for more information.
SHPP,OFF,,NOWARN
/nolist
etcon,set             ! allow ANSYS to choose best KEYOP's for 180x elements, resets any applicable keyopt to MAPDL defaults
/com,*********** Nodes for the whole assembly ***********
nblock,3,,2799
(1i9,3e20.9e3)
        1    -4.518781713E-03     8.114621888E-02     5.000000000E-03
        2     6.487601933E-02    -4.352253022E-02     5.000000000E-03
        3     5.826633619E-02    -2.908935368E-02     5.000000000E-03
        4     6.244519797E-02    -2.954665912E-02     5.000000000E-03
        5     6.646044119E-02    -3.249279726E-02     5.000000000E-03
        6     8.660579275E-03     7.750918766E-02     5.000000000E-03
        7     2.073110222E-02    -6.679541882E-03     5.000000000E-03
        8    -4.328586405E-02    -5.721725660E-03     5.000000000E-03
        9    -3.656540852E-02     1.201728463E-02     5.000000000E-03
       10    -2.822518836E-02    -2.379619923E-02     5.000000000E-03
       11     1.799452702E-02    -2.367066542E-02     5.000000000E-03
       12     6.503890201E-02    -2.700285802E-02     5.000000000E-03
       13     5.127499583E-03     2.613074316E-02     5.000000000E-03
       14     4.934747603E-02     4.496701084E-02     5.000000000E-03
       15    -4.372796479E-03     2.824795889E-02     5.000000000E-03
       16    -1.010451320E-02    -2.302087640E-02     5.000000000E-03
       17     9.973825884E-03     8.672388457E-03     5.000000000E-03
       18     1.881272093E-03    -2.012296415E-02     5.000000000E-03
       19    -4.725319891E-02    -3.646994545E-02     5.000000000E-03
       20    -1.298228844E-03     4.333765917E-02     5.000000000E-03
! ... 2526 like lines cut
/com,*********** Nodes for all Remote Points ***********
nblock,3
(1i9,3e20.9e3)
     2546     0.000000000E+00     0.000000000E+00     3.050000000E-01
     2547     0.000000000E+00     0.000000000E+00    -2.950000000E-01
     2548     0.000000000E+00     0.000000000E+00    -2.950000000E-01
     2549     0.000000000E+00     0.000000000E+00    -2.950000000E-01
     2550     0.000000000E+00     0.000000000E+00     3.050000000E-01
     2551     0.000000000E+00     0.000000000E+00     3.050000000E-01
-1
/wb,elem,start            !  set before creation of elements
/com,*********** Elements for Body 1 "Disco" ***********
et,1,186
keyo,1,2,1          ! set full integration on SOLID186
eblock,19,solid,,392
(19i9)
        1        1        1        1        0        0        0        0       20        0        1        1      629      107      609      282      660      176      619
      687     1171     1170      686     1649     1426     1425     1647      683     2349     1168     2317
        1        1        1        1        0        0        0        0       20        0        2        1      609      107      629      283      457      389      446
      686     1170     1171      687     1653     1925     1924     1651      684     2061     1169     2039
        1        1        1        1        0        0        0        0       20        0        3        1      106      628      629      282      177      659      660
      682     1166     2346      687     1429     1431     2401     1649      683     1163     2347     2349
        1        1        1        1        0        0        0        0       20        0        4        1      629      628      106      283      446      447      388
      687     2346     1166      682     1651     2038     1921     1650      684     2039     2041     1164
        1        1        1        1        0        0        0        0       20        0        5        2      547      546      134      281      553      554      149
      692     2222     1278      689     1645     2233     1334     1333      690     2225     2223     1276
        1        1        1        1        0        0        0        0       20        0        6        2      134      546      547      284      416      490      491
      689     1278     2222      692     1655     1979     2126     1657      691     1277     2127     2129
        1        1        1        1        0        0        0        0       20        0        7        2      134      648      649      281      149      679      680
      689     1279     2386      693     1333     1335     2421     1646      690     1276     2387     2389
        1        1        1        1        0        0        0        0       20        0        8        2      649      648      134      284      426      427      416
      693     2386     1279      689     1656     1998     1978     1655      691     1999     2001     1277
        1        1        1        1        0        0        0        0       20        0        9        3        4       12       52      280      279      271      231
      694      700      745      695     1644     1640     1575     1576      698      702      747      930
        1        1        1        1        0        0        0        0       20        0       10        3       52       12        4      285      334      294      286
      695      745      700      694     1659     1691     1662     1658      699      931      748      703
! ... 765 like lines cut
!Material Id = {2E66C294-6F2A-4E71-89DB-C252B2B4A44B}
/com,*********** Elements for Body 2 "Line Body" ***********
et,2,188
keyo,2,3,2
eblock,19,solid,,61
(19i9)
        2        2        2        2        0        0        0        0        3        0      393     2423     2425     2485
        2        2        2        2        0        0        0        0        3        0      394     2425     2426     2486
        2        2        2        2        0        0        0        0        3        0      395     2426     2427     2487
        2        2        2        2        0        0        0        0        3        0      396     2427     2428     2488
        2        2        2        2        0        0        0        0        3        0      397     2428     2429     2489
        2        2        2        2        0        0        0        0        3        0      398     2429     2430     2490
        2        2        2        2        0        0        0        0        3        0      399     2430     2431     2491
        2        2        2        2        0        0        0        0        3        0      400     2431     2432     2492
        2        2        2        2        0        0        0        0        3        0      401     2432     2433     2493
        2        2        2        2        0        0        0        0        3        0      402     2433     2434     2494
        2        2        2        2        0        0        0        0        3        0      403     2434     2435     2495
        2        2        2        2        0        0        0        0        3        0      404     2435     2436     2496
        2        2        2        2        0        0        0        0        3        0      405     2436     2437     2497
        2        2        2        2        0        0        0        0        3        0      406     2437     2438     2498
        2        2        2        2        0        0        0        0        3        0      407     2438     2439     2499
        2        2        2        2        0        0        0        0        3        0      408     2439     2440     2500
        2        2        2        2        0        0        0        0        3        0      409     2440     2441     2501
        2        2        2        2        0        0        0        0        3        0      410     2441     2442     2502
        2        2        2        2        0        0        0        0        3        0      411     2442     2443     2503
        2        2        2        2        0        0        0        0        3        0      412     2443     2444     2504
! ... 42 like lines cut
!Material Id = {47CEC465-522F-4886-9825-938242E8BF51}
/wb,elem,end               !  done creating elements
/com,*********** Send User Defined Coordinate System(s) ***********
csys,0
toffst,273.15,  ! Temperature offset from absolute zero
/com,*********** Set Reference Temperature ***********
tref,22.
/wb,mat,start              !  starting to send materials
/com,*********** Send Materials ***********
MP,DENS,1,7850,	! kg m^-3
MP,ALPX,1,1.2e-05,	! C^-1
MP,C,1,434,	! J kg^-1 C^-1
MP,KXX,1,60.5,	! W m^-1 C^-1
MP,RSVX,1,1.7e-07,	! kg m^3 A^-2 s^-3
MP,EX,1,200000000000,	! Pa
MP,NUXY,1,0.3,
MP,MURX,1,10000,

MP,DENS,2,7850,	! kg m^-3
MP,ALPX,2,1.2e-05,	! C^-1
MP,C,2,434,	! J kg^-1 C^-1
MP,KXX,2,60.5,	! W m^-1 C^-1
MP,RSVX,2,1.7e-07,	! kg m^3 A^-2 s^-3
MP,EX,2,200000000000,	! Pa
MP,NUXY,2,0.3,
MP,MURX,2,10000,

/wb,mat,end                !  done sending materials
/com,*********** Send Beam Properties ***********
SECTYPE,2,BEAM,CSOL
SECDATA,6.35e-003
secoffset,cent

!************************* Model Summary ********************
!Disco,	Structural Steel,	matid,	1
!Line Body,	Structural Steel,	matid,	2
!************************* End Model Summary ********************
! get the diagonal of the bounding box. Needed later for other things
*get,_xmin,node,,mnloc,x
*get,_ymin,node,,mnloc,y
*get,_zmin,node,,mnloc,z
*get,_xmax,node,,mxloc,x
*get,_ymax,node,,mxloc,y
*get,_zmax,node,,mxloc,z
_ASMDIAG=(_xmax-_xmin)*(_xmax-_xmin)+(_ymax-_ymin)*(_ymax-_ymin)+(_zmax-_zmin)*(_zmax-_zmin)
_ASMDIAG=SQRT(_ASMDIAG)
/wb,contact,start          !  starting to send contact
/com,*********** Create Contact "Bonded - Line Body To Disco" ***********
/com,            Real Constant Set For Above Contact Is 4 & 3 
*set,tid,4
*set,cid,3
r,tid
r,cid
et,tid,170
et,cid,175
mat,3
real,3
type,3
en,1026,2423
en,1027,2454
eblock,10,,,16
(15i9)
     1028        4        3        4        0      510      519      518      517     2167     2182     2180     2166
     1029        4        3        4        0      502      508      519      510     2150     2163     2167     2151
     1030        4        3        4        0      510      511      503      502     2165     2153     2149     2151
     1031        4        3        4        0      517      525      511      510     2181     2169     2165     2166
     1032        4        3        4        0      511      512      504      503     2168     2155     2152     2153
     1033        4        3        4        0      525      524      512      511     2188     2171     2168     2169
     1034        4        3        4        0      512      513      505      504     2170     2157     2154     2155
     1035        4        3        4        0      524      523      513      512     2187     2173     2170     2171
     1036        4        3        4        0      513      514      506      505     2172     2159     2156     2157
     1037        4        3        4        0      523      522      514      513     2186     2175     2172     2173
     1038        4        3        4        0      514      515      507      506     2174     2161     2158     2159
     1039        4        3        4        0      522      521      515      514     2185     2177     2174     2175
     1040        4        3        4        0      515      516      509      507     2176     2164     2160     2161
     1041        4        3        4        0      521      520      516      515     2184     2179     2176     2177
     1042        4        3        4        0      516      519      508      509     2178     2163     2162     2164
     1043        4        3        4        0      520      518      519      516     2183     2182     2178     2179
-1
keyo,cid,10,0              ! adjust contact stiffness each NR iteration (from Program Controlled setting)
keyo,cid,12,5              ! bonded always
keyo,cid,2,0               ! augmented Lagrange (from Program Controlled setting)
keyo,cid,9,1               ! ignore initial gaps/penetration
keyo,cid,7,0               ! No Prediction
rmod,cid,3,10.      ! FKN
rmod,cid,5,0.       ! ICONT
rmod,cid,6,-1.5e-002          ! PINB
rmod,cid,10,0.      ! CNOF
rmod,cid,12,0.      ! FKT
rmod,cid,36,34      ! WB DSID
nsel,all
esel,all
/wb,contact,end            !  done creating contacts
/golist
/wb,load,start             !  starting to send loads
/com,*********** Create Remote Point "Internal Remote Point 5" ***********
! -------- Remote Point Used by "Remote Displacement" --------
*set,_npilot,2546
_npilot63=_npilot
et,5,170
type,5
real,5
mat,5
keyo,5,2,1              ! don't fix pilot node
keyo,5,4,111111
tshape,pilo
en,1044,2546        ! create pilot node for rigid link
tshape
en,1045,2546,2455
/com,*********** Create Remote Point "Internal Remote Point 6" ***********
! -------- Remote Point Used by "Remote Displacement 2" --------
*set,_npilot,2547
_npilot66=_npilot
et,6,170
type,6
real,6
mat,6
keyo,6,2,1              ! don't fix pilot node
keyo,6,4,111111
tshape,pilo
en,1046,2547        ! create pilot node for rigid link
tshape
en,1047,2547,2424
/com,*********** Create Bearing Connection "Ground To Line Body" ***********
!
! Setup Bearing Connection For Reference Set which is Grounded
d,2548,all
/com,            Real Constant Set For Above Bearing Connection Is 7
*set,_sid,7
et,_sid,214            ! Combi214, Bearing-Damper Element
keyo,_sid,2,0     ! XY Plane
keyo,_sid,3,0     ! Symmetric [K] and [C]
r,_sid,684180000.,684180000.,0.,0.,0.,0.
rmore,0.,0.
mat,_sid
real,_sid
type,_sid
en,1018,2548,2424
/com,*********** Create Bearing Connection "Ground To Line Body" ***********
!
! Setup Bearing Connection For Reference Set which is Grounded
d,2550,all
/com,            Real Constant Set For Above Bearing Connection Is 8
*set,_sid,8
et,_sid,214            ! Combi214, Bearing-Damper Element
keyo,_sid,2,0     ! XY Plane
keyo,_sid,3,0     ! Symmetric [K] and [C]
r,_sid,684180000.,684180000.,0.,0.,0.,0.
rmore,0.,0.
mat,_sid
real,_sid
type,_sid
en,1019,2550,2455
/com,*********** Construct Remote Displacement ***********

*DIM,_loadvari62uz,TABLE,1,1,1,TIME,
! Time values
_loadvari62uz(1,0,1) = 1.
! Load values
_loadvari62uz(1,1,1) = 0.


*DIM,_loadvari62rotz,TABLE,1,1,1,TIME,
! Time values
_loadvari62rotz(1,0,1) = 1.
! Load values
_loadvari62rotz(1,1,1) = 0.

/com,*********** Construct Remote Displacement ***********

*DIM,_loadvari65uz,TABLE,1,1,1,TIME,
! Time values
_loadvari65uz(1,0,1) = 1.
! Load values
_loadvari65uz(1,1,1) = 0.


*DIM,_loadvari65rotz,TABLE,1,1,1,TIME,
! Time values
_loadvari65rotz(1,0,1) = 1.
! Load values
_loadvari65rotz(1,1,1) = 0.

d,2546,uz,%_loadvari62uz%
d,2546,rotz,%_loadvari62rotz%
d,2547,uz,%_loadvari65uz%
d,2547,rotz,%_loadvari65rotz%

/COM,*** Create a component for all remote displacements ***
CMBLOCK,REMOTEDISPALL,NODE,        2
(8i10)
      2546      2547

/com,*********** Define Rotational Velocity ***********
esel,all
cm,cm_rotvelcity51,elem
/gst,on,on
fini
*get,_numnode,node,0,count
*get,_numelem,elem,0,count
*get, _MAXELEMNUM, elem, 0, NUM, MAX
*get, _MAXNODENUM, node, 0, NUM, MAX
*get, _MAXELEMTYPE, etyp, 0, NUM, MAX
*get, _MAXREALCONST, real, 0, NUM, MAX
/go
/wb,load,end               !  done creating loads
/com,--- Number of total nodes = %_numnode%
/com,--- Number of contact elements = 18
/com,--- Number of spring elements = 0
/com,--- Number of bearing elements = 0
/com,--- Number of solid elements = 453
/com,--- Number of condensed parts = 0
/com,--- Number of total elements = %_numelem%
*get,_wallbsol,active,,time,wall
/solu
antype,2                   ! modal analysis
_thickRatio=  0     ! Ratio of thick parts in the model
modopt,qrdamp,5,,,on	! calculate complex eigen solution
qrdopt,on
coriolis,yes,,,yes,no
outres,erase
outres,all,none
outres,nsol,all
outres,etmp,all
/nopr
esel,s,type,,2
esel,a,type,,7,8
cm,_elmisc,elem
esel,all
/gopr
outres,misc,all,_elmisc
mxpand,,,,yes,,no             ! expand requested element results, but not write them to file.mode
dmpopt,esav,no
dmpopt,emat,no
dmpopt,full,no
/com,---------------- Campbell diagram point 1 ----------------
cmom,cm_rotvelcity51,0.,0.,10.,0.,0.,0.
! *********** WB SOLVE COMMAND ***********
! check interactive state
*get,ANSINTER_,active,,int
*if,ANSINTER_,ne,0,then
/eof
*endif
solve
/com *************** Write FE CONNECTORS ********* 
CEWRITE,file,ce,,INTE
/com,---------------- Campbell diagram point 2 ----------------
cmom,cm_rotvelcity51,0.,0.,100.,0.,0.,0.
solve
/com,---------------- Campbell diagram point 3 ----------------
cmom,cm_rotvelcity51,0.,0.,1000.,0.,0.,0.
solve
*get,_nmodalsolproc,active,0,numcpu
fini
/nopr
*get,_numnode,node,0,count
*get,_numelem,elem,0,count
*get, _MAXELEMNUM, elem, 0, NUM, MAX
*get, _MAXNODENUM, node, 0, NUM, MAX,,,INTERNAL
*get, _MAXELEMTYPE, etyp, 0, NUM, MAX
*get, _MAXREALCONST, real, 0, NUM, MAX
/gopr
*get,_wallasol,active,,time,wall
/post1
prcamp,YES,,,,cm_rotvelcity51,,1
prcamp,YES,,,,cm_rotvelcity51,1,1
/nopr
*do,i_freq,1,5
   *get,WHIRL_%i_freq%,CAMP,i_freq,WHRL
   *get,UKEY_%i_freq%,CAMP,i_freq,UKEY
   *do,j_rotvel,1,3
      *get,FREQ_%i_freq%_%j_rotvel%,CAMP,i_freq,FREQ,j_rotvel
      *get,STAB_%i_freq%_%j_rotvel%,CAMP,i_freq,STAB,j_rotvel
   *enddo
*enddo
/gopr
/nopr
*dim,_direction,CHAR,6,1
_direction(1) = 'X'
_direction(2) = 'Y'
_direction(3) = 'Z'
_direction(4) = 'X'
_direction(5) = 'Y'
_direction(6) = 'Z'
*get,_lastLS,active,0,set,LSTP
*get,_beginset,active,0,set,nset,first,_lastLS
*get,_endset,active,0,set,nset,last,_lastLS
_nummodes = 0
*if,_endset,gt,0,then
_nummodes = _endset - _beginset + 1
*endif
_nummodes=_nummodes/2
*do,i_mode,1,_nummodes
   *do,j_component,1,6
		*if,j_component,gt,3,then
			*get,PFACT_%i_mode%_%j_component%,MODE,%i_mode%,PFACT,IMAG,DIREC,_direction(%j_component%)
		*else
			*get,PFACT_%i_mode%_%j_component%,MODE,%i_mode%,PFACT,,DIREC,_direction(%j_component%)
		*endif
   *enddo
*enddo
*dim,_tmdirection,CHAR,6,1
_tmdirection(1) = 'X'
_tmdirection(2) = 'Y'
_tmdirection(3) = 'Z'
_tmdirection(4) = 'X'
_tmdirection(5) = 'Y'
_tmdirection(6) = 'Z'
*do,j_component,1,6
    *if,j_component,gt,3,then
        *get,TOTALMASS_%j_component%,ELEM,0,IOR,_tmdirection(%j_component%)
    *else
        *get,TOTALMASS_%j_component%,ELEM,0,MTOT,_tmdirection(%j_component%)
    *endif
*enddo
/gopr
xmlo,ENCODING,ISO-8859-1
xmlo,parm
/xml,parm,xml
fini
/gopr
*get,_walldone,active,,time,wall
_preptime=(_wallbsol-_wallstrt)*3600
_solvtime=(_wallasol-_wallbsol)*3600
_posttime=(_walldone-_wallasol)*3600
_totaltim=(_walldone-_wallstrt)*3600
*get,_dlbratio,active,0,solu,dlbr
*get,_combtime,active,0,solu,comb
/com,--- Total number of nodes = %_numnode%
/com,--- Total number of elements = %_numelem%
/com,--- Element load balance ratio = %_dlbratio%
/com,--- Time to combine distributed files = %_combtime%
/wb,file,end               ! done with WB generated input
