
 ANSYS Mechanical Enterprise Academic Student      


 *------------------------------------------------------------------*
 |                                                                  |
 |   W E L C O M E   T O   T H E   A N S Y S (R)  P R O G R A M     |
 |                                                                  |
 *------------------------------------------------------------------*




 ***************************************************************
 *            ANSYS 2021 R1          LEGAL NOTICES             *
 ***************************************************************
 *                                                             *
 * Copyright 1971-2021 ANSYS, Inc.  All rights reserved.       *
 * Unauthorized use, distribution or duplication is            *
 * prohibited.                                                 *
 *                                                             *
 * Ansys is a registered trademark of ANSYS, Inc. or its       *
 * subsidiaries in the United States or other countries.       *
 * See the ANSYS, Inc. online documentation or the ANSYS, Inc. *
 * documentation CD or online help for the complete Legal      *
 * Notice.                                                     *
 *                                                             *
 ***************************************************************
 *                                                             *
 * THIS ANSYS SOFTWARE PRODUCT AND PROGRAM DOCUMENTATION       *
 * INCLUDE TRADE SECRETS AND CONFIDENTIAL AND PROPRIETARY      *
 * PRODUCTS OF ANSYS, INC., ITS SUBSIDIARIES, OR LICENSORS.    *
 * The software products and documentation are furnished by    *
 * ANSYS, Inc. or its subsidiaries under a software license    *
 * agreement that contains provisions concerning               *
 * non-disclosure, copying, length and nature of use,          *
 * compliance with exporting laws, warranties, disclaimers,    *
 * limitations of liability, and remedies, and other           *
 * provisions.  The software products and documentation may be *
 * used, disclosed, transferred, or copied only in accordance  *
 * with the terms and conditions of that software license      *
 * agreement.                                                  *
 *                                                             *
 * ANSYS, Inc. is a UL registered                              *
 * ISO 9001:2015 company.                                      *
 *                                                             *
 ***************************************************************
 *                                                             *
 * This product is subject to U.S. laws governing export and   *
 * re-export.                                                  *
 *                                                             *
 * For U.S. Government users, except as specifically granted   *
 * by the ANSYS, Inc. software license agreement, the use,     *
 * duplication, or disclosure by the United States Government  *
 * is subject to restrictions stated in the ANSYS, Inc.        *
 * software license agreement and FAR 12.212 (for non-DOD      *
 * licenses).                                                  *
 *                                                             *
 ***************************************************************

 2021 R1 
     
 Point Releases and Patches installed:   
     
 Academic Student 2021 R1
 Aqwa 2021 R1
 EnSight 2021 R1 
 FENSAP-ICE 2021 R1  


          *****  ANSYS COMMAND LINE ARGUMENTS  *****
  BATCH MODE REQUESTED (-b)    = NOLIST
  INPUT FILE COPY MODE (-c)    = COPY
  DISTRIBUTED MEMORY PARALLEL REQUESTED
       2 PARALLEL PROCESSES REQUESTED WITH SINGLE THREAD PER PROCESS
    TOTAL OF     2 CORES REQUESTED
  INPUT FILE NAME              = C:\Users\vinig\Desktop\codes\TCC-assets\programas\ansys\_ProjectScratch\Scr8D6C\dummy.dat
  OUTPUT FILE NAME             = C:\Users\vinig\Desktop\codes\TCC-assets\programas\ansys\_ProjectScratch\Scr8D6C\solve.out
  START-UP FILE MODE           = NOREAD
  STOP FILE MODE               = NOREAD

 RELEASE= 2021 R1              BUILD= 21.1      UP20201109   VERSION=WINDOWS x64 
 CURRENT JOBNAME=file0  13:38:48  MAR 06, 2021 CP=      0.266


 PARAMETER _DS_PROGRESS =     999.0000000    

 /INPUT FILE= ds.dat  LINE=       0



 *** NOTE ***                            CP =       0.344   TIME= 13:38:48
 The /CONFIG,NOELDB command is not valid in a Distributed ANSYS          
 solution.  Command is ignored.                                          

 *GET  _WALLSTRT  FROM  ACTI  ITEM=TIME WALL  VALUE=  13.6466667    

 TITLE= 
 simulacao_FE--Modal (A5)                                                      

  ACT Extensions:
      LSDYNA, 2021.1
      5f463412-bd3e-484b-87e7-cbc0a665e474, wbex
 /COM,     MechanicalDropTest, 2.0
      f0fd899f-9d88-4f46-8cf1-36bf5c218d65, wbex
  

 SET PARAMETER DIMENSIONS ON  _WB_PROJECTSCRATCH_DIR
  TYPE=STRI  DIMENSIONS=      248        1        1

 PARAMETER _WB_PROJECTSCRATCH_DIR(1) = C:\Users\vinig\Desktop\codes\TCC-assets\programas\ansys\_ProjectScratch\Scr8D6C\

 SET PARAMETER DIMENSIONS ON  _WB_SOLVERFILES_DIR
  TYPE=STRI  DIMENSIONS=      248        1        1

 PARAMETER _WB_SOLVERFILES_DIR(1) = C:\Users\vinig\Desktop\codes\TCC-assets\programas\ansys\simulacao_FE_files\dp0\SYS\MECH\

 SET PARAMETER DIMENSIONS ON  _WB_USERFILES_DIR
  TYPE=STRI  DIMENSIONS=      248        1        1

 PARAMETER _WB_USERFILES_DIR(1) = C:\Users\vinig\Desktop\codes\TCC-assets\programas\ansys\simulacao_FE_files\user_files\
 --- Data in consistent MKS units. See Solving Units in the help system for more

 MKS UNITS SPECIFIED FOR INTERNAL    
  LENGTH        (l)  = METER (M)
  MASS          (M)  = KILOGRAM (KG)
  TIME          (t)  = SECOND (SEC)
  TEMPERATURE   (T)  = CELSIUS (C)
  TOFFSET            = 273.0
  CHARGE        (Q)  = COULOMB
  FORCE         (f)  = NEWTON (N) (KG-M/SEC2)
  HEAT               = JOULE (N-M)

  PRESSURE           = PASCAL (NEWTON/M**2)
  ENERGY        (W)  = JOULE (N-M)
  POWER         (P)  = WATT (N-M/SEC)
  CURRENT       (i)  = AMPERE (COULOMBS/SEC)
  CAPACITANCE   (C)  = FARAD
  INDUCTANCE    (L)  = HENRY
  MAGNETIC FLUX      = WEBER
  RESISTANCE    (R)  = OHM
  ELECTRIC POTENTIAL = VOLT

 INPUT  UNITS ARE ALSO SET TO MKS 

 *** ANSYS - ENGINEERING ANALYSIS SYSTEM  RELEASE 2021 R1          21.1     ***
 DISTRIBUTED ANSYS Mechanical Enterprise Academic Student      

 00000000  VERSION=WINDOWS x64   13:38:48  MAR 06, 2021 CP=      0.344

 simulacao_FE--Modal (A5)                                                      



          ***** ANSYS ANALYSIS DEFINITION (PREP7) *****
 *********** Nodes for the whole assembly ***********
 *********** Nodes for all Remote Points ***********
 *********** Elements for Body 1 "Disco" ***********
 *********** Elements for Body 2 "Line Body" ***********
 *********** Send User Defined Coordinate System(s) ***********
 *********** Set Reference Temperature ***********
 *********** Send Materials ***********
 *********** Send Beam Properties ***********
 *********** Create Contact "Bonded - Line Body To Disco" ***********
             Real Constant Set For Above Contact Is 4 & 3
 *********** Create Remote Point "Internal Remote Point 5" ***********
 *********** Create Remote Point "Internal Remote Point 6" ***********
 *********** Create Bearing Connection "Ground To Line Body" ***********
             Real Constant Set For Above Bearing Connection Is 7
 *********** Create Bearing Connection "Ground To Line Body" ***********
             Real Constant Set For Above Bearing Connection Is 8
 *********** Construct Remote Displacement ***********
 *********** Construct Remote Displacement ***********
 *** Create a component for all remote displacements ***
 *********** Define Rotational Velocity ***********


 ***** ROUTINE COMPLETED *****  CP =         0.375


 --- Number of total nodes = 2551
 --- Number of contact elements = 18
 --- Number of spring elements = 0
 --- Number of bearing elements = 0
 --- Number of solid elements = 453
 --- Number of condensed parts = 0
 --- Number of total elements = 477

 *GET  _WALLBSOL  FROM  ACTI  ITEM=TIME WALL  VALUE=  13.6466667    

 *****  ANSYS SOLUTION ROUTINE  *****


 PERFORM A MODAL ANALYSIS
  THIS WILL BE A NEW ANALYSIS

 PARAMETER _THICKRATIO =     0.000000000    


 USE QRDAMP MODE EXTRACTION METHOD
  EXTRACT     5 MODES
  COMPUTE COMPLEX MODE SHAPES: YES 
  NORMALIZE THE MODE SHAPES TO THE MASS MATRIX

 QRDAMP EIGENSOLVER OPTIONS
  REUSE EIGENMODES FROM MODESYM FILE: Yes 
  SYMMETRIZE CONTACT STIFFNESS MATRIX AT ELEMENT LEVEL


 CORIOLIS IN STATIONARY REFERENCE FRAME: GYROSCOPIC DAMPING MATRIX WILL BE CALCULATED

 ERASE THE CURRENT DATABASE OUTPUT CONTROL TABLE.


 WRITE ALL  ITEMS TO THE DATABASE WITH A FREQUENCY OF NONE
   FOR ALL APPLICABLE ENTITIES

 WRITE NSOL ITEMS TO THE DATABASE WITH A FREQUENCY OF ALL 
   FOR ALL APPLICABLE ENTITIES

 WRITE ETMP ITEMS TO THE DATABASE WITH A FREQUENCY OF ALL 
   FOR ALL APPLICABLE ENTITIES

 PRINTOUT RESUMED BY /GOP

 WRITE MISC ITEMS TO THE DATABASE WITH A FREQUENCY OF ALL 
   FOR THE ENTITIES DEFINED BY COMPONENT _ELMISC 


 EXPAND ALL EXTRACTED MODES
  CALCULATE ELEMENT RESULTS AND NODAL DOF SOLUTION
  CALCULATE STRESSES IN ANY DOWNSTREAM MODE SUPERPOSITION EXPANSION PASS

 DO NOT COMBINE ELEMENT SAVE DATA FILES (.esav) AFTER DISTRIBUTED PARALLEL SOLUTION

 DO NOT COMBINE ELEMENT MATRIX FILES (.emat) AFTER DISTRIBUTED PARALLEL SOLUTION

 DO NOT COMBINE ASSEMBLED MATRIX FILES (.full) AFTER DISTRIBUTED PARALLEL SOLUTION
 ---------------- Campbell diagram point 1 ----------------

 CMOMEGA on component= cm_rotvelcity51                 
  OMEGAX, OMEGAY, OMEGAZ=   0.0000      0.0000      10.000    
  X1, Y1, Z1=   0.0000      0.0000      0.0000    

 *GET  ANSINTER_  FROM  ACTI  ITEM=INT        VALUE=  0.00000000    

 *IF  ANSINTER_                         ( =   0.00000     )  NE  
      0                                 ( =   0.00000     )  THEN    

 *ENDIF

 *** NOTE ***                            CP =       0.375   TIME= 13:38:48
 The automatic domain decomposition logic has selected the MESH domain   
 decomposition method with 2 processes per solution.                     

 *****  ANSYS SOLVE    COMMAND  *****

 *** WARNING ***                         CP =       0.375   TIME= 13:38:48
 Element shape checking is currently inactive.  Issue SHPP,ON or         
 SHPP,WARN to reactivate, if desired.                                    

 *** WARNING ***                         CP =       0.375   TIME= 13:38:48
 Make sure that the rotating element component 1 (component name         
 CM_ROTVE) is axisymmetric about the axis of spin defined by the         
 CMOMEGA command to correctly account for the gyroscopic effect in the   
 stationary reference frame (CORIOLIS, ON,,, ON).                        

 *** NOTE ***                            CP =       0.375   TIME= 13:38:48
 The model data was checked and warning messages were found.             
  Please review output or errors file (                                  
 C:\Users\vinig\Desktop\codes\TCC-assets\programas\ansys\_ProjectScratch 
 h\Scr8D6C\file0.err ) for these warning messages.                       

 *** SELECTION OF ELEMENT TECHNOLOGIES FOR APPLICABLE ELEMENTS ***
      --- GIVE SUGGESTIONS AND RESET THE KEY OPTIONS ---

 ELEMENT TYPE         1 IS SOLID186. KEYOPT(2)=0 IS SUGGESTED AND HAS BEEN RESET.
  KEYOPT(1-12)=    0    0    0    0    0    0    0    0    0    0    0    0

 ELEMENT TYPE         2 IS BEAM188 . KEYOPT(3) IS ALREADY SET AS SUGGESTED AND NO
 RESETTING IS NEEDED.

 ELEMENT TYPE         2 IS BEAM188 . KEYOPT(15) IS ALREADY SET AS SUGGESTED AND NO
 RESETTING IS NEEDED.



 *** ANSYS - ENGINEERING ANALYSIS SYSTEM  RELEASE 2021 R1          21.1     ***
 DISTRIBUTED ANSYS Mechanical Enterprise Academic Student      

 00000000  VERSION=WINDOWS x64   13:38:48  MAR 06, 2021 CP=      0.375

 simulacao_FE--Modal (A5)                                                      



                       S O L U T I O N   O P T I O N S

   PROBLEM DIMENSIONALITY. . . . . . . . . . . . .3-D                  
   DEGREES OF FREEDOM. . . . . . UX   UY   UZ   ROTX ROTY ROTZ
   ANALYSIS TYPE . . . . . . . . . . . . . . . . .MODAL                
      EXTRACTION METHOD. . . . . . . . . . . . . .QRDAMP
      QRDAMP BASE EIGENSOLVER. . . . . . . . . . .BLOCK LANCZOS
      COMPLEX SOLUTION OUTPUT. . . . . . . . . . .ON
   OFFSET TEMPERATURE FROM ABSOLUTE ZERO . . . . .  273.15    
   NUMBER OF MODES TO EXTRACT. . . . . . . . . . .     5
   GLOBALLY ASSEMBLED MATRIX . . . . . . . . . . .UNSYMMETRIC
   NUMBER OF MODES TO EXPAND . . . . . . . . . . .ALL
   ELEMENT RESULTS CALCULATION . . . . . . . . . .ON 

 *** WARNING ***                         CP =       0.375   TIME= 13:38:48
 Material number 7 (used by element 1018) should normally have at least  
 one MP or one TB type command associated with it.  Output of energy by  
 material may not be available.                                          

 *** NOTE ***                            CP =       0.391   TIME= 13:38:48
 The step data was checked and warning messages were found.              
  Please review output or errors file (                                  
 C:\Users\vinig\Desktop\codes\TCC-assets\programas\ansys\_ProjectScratch 
 h\Scr8D6C\file0.err ) for these warning messages.                       

 *** NOTE ***                            CP =       0.391   TIME= 13:38:48
 Internal nodes from 2552 to 2614 are created.                           
 2 internal nodes are used for handling degrees of freedom on pilot      
 nodes of rigid target surfaces.                                         
 61 internal nodes are used for quadratic and/or cubic options of        
 BEAM188, PIPE288, and/or SHELL208.                                      

 *** NOTE ***                            CP =       0.391   TIME= 13:38:48
 Internal nodes from 2552 to 2558 are created.                           
 2 internal nodes are used for handling degrees of freedom on pilot      
 nodes of rigid target surfaces.                                         
 5 internal nodes are used for quadratic and/or cubic options of         
 BEAM188, PIPE288, and/or SHELL208.                                      

 *** NOTE ***                            CP =       0.391   TIME= 13:38:48
 Deformable-deformable contact pair identified by real constant set 3    
 and contact element type 3 has been set up.                             
 Node-surface contact pair is defined
 Contact force based contact model
 Contact algorithm: Augmented Lagrange method
 Contact detection at: nodal point (normal to target surface)
 Contact stiffness factor FKN                  10.000    
 The resulting initial contact stiffness      0.19833E+12
 Default penetration tolerance factor FTOLN   0.10000    
 The resulting penetration tolerance          0.49583E-03
 Default opening contact stiffness OPSF will be used.
 Default tangent stiffness factor FKT          1.0000    
 Default elastic slip factor SLTOL            0.50000E-02
 The resulting elastic slip tolerance         0.24792E-04
 Update contact stiffness at each iteration
 Default Max. friction stress TAUMAX          0.10000E+21
 Average contact surface length               0.49583E-02
 Average contact pair depth                   0.49583E-02
 User defined pinball region PINB             0.15000E-01
 Default target edge extension factor TOLS     10.000    
 Initial penetration/gap is excluded.
 Bonded contact (always) is defined.

 *** NOTE ***                            CP =       0.391   TIME= 13:38:48
 Min.  Initial gap 6.36357626E-03 was detected between contact element   
 1027 and target element 1037.                                           
 The gap is closed due to initial settings.                              
 *WARNING*: The initial penetration/gap is relatively large.  Bonded/no  
 separation option may cause an accuracy issue.  Switch to MPC           
 algorithm or you may use the CNCHECK,ADJUST/MORPH command to move the   
 contact nodes towards the target surface.                               
 ****************************************
  

 *** NOTE ***                            CP =       0.391   TIME= 13:38:48
 Rigid target surface identified by real constant set 5.  The degrees    
 of freedom of the rigid surface are driven by the pilot node 2546.      
 Internal MPC will be built.                                             
 Boundary conditions can be applied on any target node.
 The rigid surface does not overlap other elements.                      
 The used degrees of freedom set is  UX   UY   UZ   ROTX ROTY ROTZ
 ****************************************
  

 *** NOTE ***                            CP =       0.391   TIME= 13:38:48
 Rigid target surface identified by real constant set 6.  The degrees    
 of freedom of the rigid surface are driven by the pilot node 2547.      
 Internal MPC will be built.                                             
 Boundary conditions can be applied on any target node.
 The rigid surface does not overlap other elements.                      
 The used degrees of freedom set is  UX   UY   UZ   ROTX ROTY ROTZ
 ****************************************
  
  
  

 *** NOTE ***                            CP =       0.391   TIME= 13:38:48
 Internal nodes from 2552 to 2614 are created.                           
 2 internal nodes are used for handling degrees of freedom on pilot      
 nodes of rigid target surfaces.                                         
 61 internal nodes are used for quadratic and/or cubic options of        
 BEAM188, PIPE288, and/or SHELL208.                                      

  
  
     D I S T R I B U T E D   D O M A I N   D E C O M P O S E R
  
  ...Number of elements: 477
  ...Number of nodes:    2614
  ...Decompose to 2 CPU domains
  ...Element load balance ratio =     1.031


                      L O A D   S T E P   O P T I O N S

   LOAD STEP NUMBER. . . . . . . . . . . . . . . .     1
   THERMAL STRAINS INCLUDED IN THE LOAD VECTOR . .   YES
   CORIOLIS EFFECT IN STATIONARY REF. FRAME  . . .    ON
   REUSE EIGENMODES FOR QRDAMP SOLVER. . . . . . .YES
   PRINT OUTPUT CONTROLS . . . . . . . . . . . . .NO PRINTOUT
   DATABASE OUTPUT CONTROLS
      ITEM     FREQUENCY   COMPONENT
       ALL       NONE               
      NSOL        ALL               
      ETMP        ALL               
      MISC        ALL       _ELMISC 


 *** NOTE ***                            CP =       0.438   TIME= 13:38:48
 Deformable-deformable contact pair identified by real constant set 3    
 and contact element type 3 has been set up.                             
 Node-surface contact pair is defined
 Contact force based contact model
 Contact algorithm: Augmented Lagrange method
 Contact detection at: nodal point (normal to target surface)
 Contact stiffness factor FKN                  10.000    
 The resulting initial contact stiffness      0.19833E+12
 Default penetration tolerance factor FTOLN   0.10000    
 The resulting penetration tolerance          0.49583E-03
 Default opening contact stiffness OPSF will be used.
 Default tangent stiffness factor FKT          1.0000    
 Default elastic slip factor SLTOL            0.50000E-02
 The resulting elastic slip tolerance         0.24792E-04
 Update contact stiffness at each iteration
 Default Max. friction stress TAUMAX          0.10000E+21
 Average contact surface length               0.49583E-02
 Average contact pair depth                   0.49583E-02
 User defined pinball region PINB             0.15000E-01
 Default target edge extension factor TOLS     10.000    
 Initial penetration/gap is excluded.
 Bonded contact (always) is defined.

 *** NOTE ***                            CP =       0.438   TIME= 13:38:48
 Min.  Initial gap 6.36357626E-03 was detected between contact element   
 1027 and target element 1037.                                           
 The gap is closed due to initial settings.                              
 *WARNING*: The initial penetration/gap is relatively large.  Bonded/no  
 separation option may cause an accuracy issue.  Switch to MPC           
 algorithm or you may use the CNCHECK,ADJUST/MORPH command to move the   
 contact nodes towards the target surface.                               
 ****************************************
  


                         ***********  PRECISE MASS SUMMARY  ***********

   TOTAL RIGID BODY MASS MATRIX ABOUT ORIGIN
               Translational mass               |   Coupled translational/rotational mass
         2.5822        0.0000        0.0000     |     0.0000       0.12911E-01   0.27239E-09
         0.0000        2.5822        0.0000     |   -0.12911E-01    0.0000      -0.12958E-09
         0.0000        0.0000        2.5822     |   -0.27239E-09   0.12958E-09    0.0000    
     ------------------------------------------ | ------------------------------------------
                                                |         Rotational mass (inertia)
                                                |    0.22035E-01  -0.45278E-12  -0.10070E-11
                                                |   -0.45278E-12   0.22035E-01  -0.30115E-11
                                                |   -0.10070E-11  -0.30115E-11   0.81367E-02

   TOTAL MASS =  2.5822    
     The mass principal axes coincide with the global Cartesian axes

   CENTER OF MASS (X,Y,Z)=  -0.50184E-10  -0.10549E-09   0.50000E-02

   TOTAL INERTIA ABOUT CENTER OF MASS
        0.21970E-01  -0.45278E-12  -0.16550E-11
       -0.45278E-12   0.21970E-01  -0.43735E-11
       -0.16550E-11  -0.43735E-11   0.81367E-02
     The inertia principal axes coincide with the global Cartesian axes


  *** MASS SUMMARY BY ELEMENT TYPE ***

  TYPE      MASS
     1   1.98603    
     2  0.596184    

 Range of element maximum matrix coefficients in global coordinates
 Maximum = 1.983333333E+11 at element 1026.                              
 Minimum = 684180000 at element 1019.                                    

   *** ELEMENT MATRIX FORMULATION TIMES
     TYPE    NUMBER   ENAME      TOTAL CP  AVE CP

        1       392  SOLID186      0.219   0.000558
        2        61  BEAM188       0.000   0.000000
        3         2  CONTA175      0.000   0.000000
        4        16  TARGE170      0.000   0.000000
        5         2  TARGE170      0.000   0.000000
        6         2  TARGE170      0.000   0.000000
        7         1  COMBI214      0.000   0.000000
        8         1  COMBI214      0.000   0.000000
 Time at end of element matrix formulation CP = 0.6875.                  

   *** GYROSCOPIC DAMPING MATRIX CALCULATED FOR LISTED ELEMENTS:
     TYPE     NUMBER   ENAME

        1       392  SOLID186
        2        61  BEAM188 


  BLOCK LANCZOS CALCULATION OF UP TO     5 EIGENVECTORS.
  NUMBER OF EQUATIONS              =         8000
  MAXIMUM WAVEFRONT                =          600
  MAXIMUM MODES STORED             =            5
  MINIMUM EIGENVALUE               =  0.00000E+00
  MAXIMUM EIGENVALUE               =  0.10000E+31


  Local memory allocated for solver              =     20.004 MB
  Local memory required for in-core solution     =     19.063 MB
  Local memory required for out-of-core solution =     10.058 MB

  Total memory allocated for solver              =     37.192 MB
  Total memory required for in-core solution     =     35.448 MB
  Total memory required for out-of-core solution =     19.494 MB

 *** NOTE ***                            CP =       1.094   TIME= 13:38:49
 The Distributed Sparse Matrix Solver used by the Block Lanczos          
 eigensolver is currently running in the in-core memory mode.  This      
 memory mode uses the most amount of memory in order to avoid using the  
 hard drive as much as possible, which most often results in the         
 fastest solution time.  This mode is recommended if enough physical     
 memory is present to accommodate all of the solver data.                

 *** ANSYS - ENGINEERING ANALYSIS SYSTEM  RELEASE 2021 R1          21.1     ***
 DISTRIBUTED ANSYS Mechanical Enterprise Academic Student      

 00000000  VERSION=WINDOWS x64   13:38:49  MAR 06, 2021 CP=      1.266

 simulacao_FE--Modal (A5)                                                      



 *** UNDAMPED FREQUENCIES FROM BLOCK LANCZOS ITERATION ***

  MODE    FREQUENCY (HERTZ)      


    1    0.6281232061984E-03
    2     25.09992886276    
    3     25.19147669533    
    4     133.6756390334    
    5     166.1541614061    
                                                                         
 Time at end of state-space matrix formulation CP = 1.296875.            

  ***** DAMPED FREQUENCIES FROM REDUCED DAMPED EIGENSOLVER *****

               COMPLEX FREQUENCY (HERTZ)
  MODE     STABILITY            FREQUENCY         MODAL DAMPING RATIO


    1       0.0000000          0.62811669E-03j       0.0000000    
    2       0.0000000           25.099929    j       0.0000000    
    3       0.0000000           25.191475    j       0.0000000    
    4       0.0000000           133.62956    j       0.0000000    
    5       0.0000000           166.21319    j       0.0000000    
                                                                         
 Time at end of eigenproblem resolution CP = 1.296875.                   
                                                                         
 Time at end of mode shape normalization CP = 1.328125.                  

   *** ELEMENT RESULT CALCULATION TIMES
     TYPE    NUMBER   ENAME      TOTAL CP  AVE CP

        1       392  SOLID186      0.047   0.000120
        2        61  BEAM188       0.000   0.000000
        3         2  CONTA175      0.000   0.000000
        7         1  COMBI214      0.000   0.000000
        8         1  COMBI214      0.000   0.000000

   *** NODAL LOAD CALCULATION TIMES
     TYPE    NUMBER   ENAME      TOTAL CP  AVE CP

        1       392  SOLID186      0.000   0.000000
        2        61  BEAM188       0.000   0.000000
        3         2  CONTA175      0.000   0.000000
        7         1  COMBI214      0.000   0.000000
        8         1  COMBI214      0.000   0.000000

 *** ANSYS - ENGINEERING ANALYSIS SYSTEM  RELEASE 2021 R1          21.1     ***
 DISTRIBUTED ANSYS Mechanical Enterprise Academic Student      

 00000000  VERSION=WINDOWS x64   13:38:49  MAR 06, 2021 CP=      1.688

 simulacao_FE--Modal (A5)                                                      





          ***** PARTICIPATION FACTOR CALCULATION *****  X  DIRECTION
                                                                                  CUMULATIVE     RATIO EFF.MASS
  MODE   FREQUENCY       PERIOD      PARTIC.FACTOR     RATIO    EFFECTIVE MASS   MASS FRACTION   TO TOTAL MASS
     1    0.628117E-03    1592.1       0.38747E-01    0.025979    0.150131E-02    0.613948E-03    0.581403E-03
     2     25.0999       0.39841E-01   -1.4914        1.000000     2.22440        0.910264        0.861430    
     3     25.1915       0.39696E-01   0.46843        0.314082    0.219431        0.999998        0.849777E-01
     4     133.630       0.74834E-02   0.19213E-02    0.001288    0.369146E-05     1.00000        0.142957E-05
     5     166.213       0.60164E-02   0.98534E-03    0.000661    0.970889E-06     1.00000        0.375991E-06
 -----------------------------------------------------------------------------------------------------------------
   sum                                                             2.44534                        0.946991    
 -----------------------------------------------------------------------------------------------------------------



          ***** PARTICIPATION FACTOR CALCULATION *****  Y  DIRECTION
                                                                                  CUMULATIVE     RATIO EFF.MASS
  MODE   FREQUENCY       PERIOD      PARTIC.FACTOR     RATIO    EFFECTIVE MASS   MASS FRACTION   TO TOTAL MASS
     1    0.628117E-03    1592.1       0.12248        0.082403    0.150024E-01    0.613505E-02    0.580990E-02
     2     25.0999       0.39841E-01   0.47003        0.316220    0.220931        0.964819E-01    0.855586E-01
     3     25.1915       0.39696E-01    1.4864        1.000000     2.20942        0.999997        0.855630    
     4     133.630       0.74834E-02   0.24786E-02    0.001667    0.614340E-05     1.00000        0.237912E-05
     5     166.213       0.60164E-02  -0.86630E-03    0.000583    0.750476E-06     1.00000        0.290632E-06
 -----------------------------------------------------------------------------------------------------------------
   sum                                                             2.44536                        0.947001    
 -----------------------------------------------------------------------------------------------------------------



          ***** PARTICIPATION FACTOR CALCULATION *****  Z  DIRECTION
                                                                                  CUMULATIVE     RATIO EFF.MASS
  MODE   FREQUENCY       PERIOD      PARTIC.FACTOR     RATIO    EFFECTIVE MASS   MASS FRACTION   TO TOTAL MASS
     1    0.628117E-03    1592.1      -0.49402E-01    0.243695    0.244056E-02    0.559371E-01    0.945142E-03
     2     25.0999       0.39841E-01  -0.67251E-04    0.000332    0.452275E-08    0.559372E-01    0.175150E-08
     3     25.1915       0.39696E-01   0.44556E-02    0.021979    0.198521E-04    0.563922E-01    0.768799E-05
     4     133.630       0.74834E-02  -0.20272        1.000000    0.410958E-01    0.998298        0.159149E-01
     5     166.213       0.60164E-02  -0.86168E-02    0.042506    0.742486E-04     1.00000        0.287538E-04
 -----------------------------------------------------------------------------------------------------------------
   sum                                                            0.436305E-01                    0.168965E-01
 -----------------------------------------------------------------------------------------------------------------

 *** ANSYS - ENGINEERING ANALYSIS SYSTEM  RELEASE 2021 R1          21.1     ***
 DISTRIBUTED ANSYS Mechanical Enterprise Academic Student      

 00000000  VERSION=WINDOWS x64   13:38:49  MAR 06, 2021 CP=      1.688

 simulacao_FE--Modal (A5)                                                      





          ***** PARTICIPATION FACTOR CALCULATION *****  X  DIRECTION
                                                                                  CUMULATIVE     RATIO EFF.MASS
  MODE   FREQUENCY       PERIOD      PARTIC.FACTOR     RATIO    EFFECTIVE MASS   MASS FRACTION   TO TOTAL MASS
  IMAGINARY COMPONENT

     1    0.628117E-03    1592.1        0.0000        0.000000     0.00000         0.00000         0.00000    
     2     25.0999       0.39841E-01   0.33741E-03    0.313275    0.113848E-06    0.890133E-01    0.440893E-07
     3     25.1915       0.39696E-01  -0.10771E-02    1.000000    0.116005E-05    0.996007        0.449244E-06
     4     133.630       0.74834E-02   0.41513E-04    0.038543    0.172335E-08    0.997354        0.667390E-09
     5     166.213       0.60164E-02   0.58171E-04    0.054009    0.338383E-08     1.00000        0.131044E-08
 -----------------------------------------------------------------------------------------------------------------
   sum                                                            0.127900E-05                    0.495311E-06
 -----------------------------------------------------------------------------------------------------------------



          ***** PARTICIPATION FACTOR CALCULATION *****  Y  DIRECTION
                                                                                  CUMULATIVE     RATIO EFF.MASS
  MODE   FREQUENCY       PERIOD      PARTIC.FACTOR     RATIO    EFFECTIVE MASS   MASS FRACTION   TO TOTAL MASS
  IMAGINARY COMPONENT

     1    0.628117E-03    1592.1        0.0000        0.000000     0.00000         0.00000         0.00000    
     2     25.0999       0.39841E-01   0.10707E-02    1.000000    0.114631E-05    0.905036        0.443925E-06
     3     25.1915       0.39696E-01   0.33996E-03    0.317528    0.115576E-06    0.996286        0.447584E-07
     4     133.630       0.74834E-02  -0.39277E-04    0.036685    0.154267E-08    0.997504        0.597421E-09
     5     166.213       0.60164E-02   0.56227E-04    0.052516    0.316148E-08     1.00000        0.122433E-08
 -----------------------------------------------------------------------------------------------------------------
   sum                                                            0.126659E-05                    0.490505E-06
 -----------------------------------------------------------------------------------------------------------------



          ***** PARTICIPATION FACTOR CALCULATION *****  Z  DIRECTION
                                                                                  CUMULATIVE     RATIO EFF.MASS
  MODE   FREQUENCY       PERIOD      PARTIC.FACTOR     RATIO    EFFECTIVE MASS   MASS FRACTION   TO TOTAL MASS
  IMAGINARY COMPONENT

     1    0.628117E-03    1592.1        0.0000        0.000000     0.00000         0.00000         0.00000    
     2     25.0999       0.39841E-01   0.29799E-05    0.000325    0.887992E-11    0.105259E-06    0.343887E-11
     3     25.1915       0.39696E-01   0.93935E-06    0.000102    0.882370E-12    0.115718E-06    0.341710E-12
     4     133.630       0.74834E-02  -0.31399E-03    0.034205    0.985881E-07    0.116874E-02    0.381796E-07
     5     166.213       0.60164E-02  -0.91795E-02    1.000000    0.842640E-04     1.00000        0.326324E-04
 -----------------------------------------------------------------------------------------------------------------
   sum                                                            0.843626E-04                    0.326706E-04
 -----------------------------------------------------------------------------------------------------------------


 *** ANSYS BINARY FILE STATISTICS
  BUFFER SIZE USED= 16384
       18.188 MB WRITTEN ON ELEMENT MATRIX FILE: file0.emat
        0.500 MB WRITTEN ON ELEMENT SAVED DATA FILE: file0.esav
       11.375 MB WRITTEN ON ASSEMBLED MATRIX FILE: file0.full
        0.812 MB WRITTEN ON MODAL MATRIX FILE: file0.mode
        1.188 MB WRITTEN ON RESULTS FILE: file0.rst
 *************** Write FE CONNECTORS *********

 WRITE OUT CONSTRAINT EQUATIONS TO FILE= file.ce                                                                                                                                                                                                                                                             
 ---------------- Campbell diagram point 2 ----------------

 CMOMEGA on component= cm_rotvelcity51                 
  OMEGAX, OMEGAY, OMEGAZ=   0.0000      0.0000      100.00    
  X1, Y1, Z1=   0.0000      0.0000      0.0000    

 *****  ANSYS SOLVE    COMMAND  *****

 *** WARNING ***                         CP =       1.703   TIME= 13:38:49
 Material number 7 (used by element 1018) should normally have at least  
 one MP or one TB type command associated with it.  Output of energy by  
 material may not be available.                                          

 *** NOTE ***                            CP =       1.703   TIME= 13:38:49
 The step data was checked and warning messages were found.              
  Please review output or errors file (                                  
 C:\Users\vinig\Desktop\codes\TCC-assets\programas\ansys\_ProjectScratch 
 h\Scr8D6C\file0.err ) for these warning messages.                       

 *** ANSYS - ENGINEERING ANALYSIS SYSTEM  RELEASE 2021 R1          21.1     ***
 DISTRIBUTED ANSYS Mechanical Enterprise Academic Student      

 00000000  VERSION=WINDOWS x64   13:38:49  MAR 06, 2021 CP=      1.703

 simulacao_FE--Modal (A5)                                                      



                      L O A D   S T E P   O P T I O N S

   LOAD STEP NUMBER. . . . . . . . . . . . . . . .     2
   THERMAL STRAINS INCLUDED IN THE LOAD VECTOR . .   YES
   CORIOLIS EFFECT IN STATIONARY REF. FRAME  . . .    ON
   REUSE EIGENMODES FOR QRDAMP SOLVER. . . . . . .YES
   PRINT OUTPUT CONTROLS . . . . . . . . . . . . .NO PRINTOUT
   DATABASE OUTPUT CONTROLS
      ITEM     FREQUENCY   COMPONENT
       ALL       NONE               
      NSOL        ALL               
      ETMP        ALL               
      MISC        ALL       _ELMISC 


   *** GYROSCOPIC DAMPING MATRIX CALCULATED FOR LISTED ELEMENTS:
     TYPE     NUMBER   ENAME

        1       392  SOLID186
        2        61  BEAM188 


 *** WARNING ***                         CP =       1.859   TIME= 13:38:50
 The file0.modesym file does exist and is being used for the QR damp     
 eigensolution since the ReuseKey is set to ON on the QRDOPT command.    
                                                                         
 Time at end of state-space matrix formulation CP = 1.875.               

  ***** DAMPED FREQUENCIES FROM REDUCED DAMPED EIGENSOLVER *****

               COMPLEX FREQUENCY (HERTZ)
  MODE     STABILITY            FREQUENCY         MODAL DAMPING RATIO


    1       0.0000000          0.62747277E-03j       0.0000000    
    2       0.0000000           25.099924    j       0.0000000    
    3       0.0000000           25.191272    j       0.0000000    
    4       0.0000000           129.71189    j       0.0000000    
    5       0.0000000           171.41044    j       0.0000000    
                                                                         
 Time at end of eigenproblem resolution CP = 1.875.                      
                                                                         
 Time at end of mode shape normalization CP = 1.875.                     

 *** ANSYS - ENGINEERING ANALYSIS SYSTEM  RELEASE 2021 R1          21.1     ***
 DISTRIBUTED ANSYS Mechanical Enterprise Academic Student      

 00000000  VERSION=WINDOWS x64   13:38:50  MAR 06, 2021 CP=      2.234

 simulacao_FE--Modal (A5)                                                      





          ***** PARTICIPATION FACTOR CALCULATION *****  X  DIRECTION
                                                                                  CUMULATIVE     RATIO EFF.MASS
  MODE   FREQUENCY       PERIOD      PARTIC.FACTOR     RATIO    EFFECTIVE MASS   MASS FRACTION   TO TOTAL MASS
     1    0.627473E-03    1593.7       0.38747E-01    0.025980    0.150131E-02    0.613978E-03    0.581403E-03
     2     25.0999       0.39841E-01   -1.4914        1.000000     2.22433        0.910281        0.861404    
     3     25.1913       0.39696E-01   0.46838        0.314048    0.219378        0.999998        0.849571E-01
     4     129.712       0.77094E-02   0.19475E-02    0.001306    0.379260E-05     1.00000        0.146874E-05
     5     171.410       0.58340E-02   0.90088E-03    0.000604    0.811591E-06     1.00000        0.314300E-06
 -----------------------------------------------------------------------------------------------------------------
   sum                                                             2.44522                        0.946945    
 -----------------------------------------------------------------------------------------------------------------



          ***** PARTICIPATION FACTOR CALCULATION *****  Y  DIRECTION
                                                                                  CUMULATIVE     RATIO EFF.MASS
  MODE   FREQUENCY       PERIOD      PARTIC.FACTOR     RATIO    EFFECTIVE MASS   MASS FRACTION   TO TOTAL MASS
     1    0.627473E-03    1593.7       0.12248        0.082403    0.150024E-01    0.613520E-02    0.580990E-02
     2     25.0999       0.39841E-01   0.46997        0.316177    0.220871        0.964597E-01    0.855354E-01
     3     25.1913       0.39696E-01    1.4864        1.000000     2.20942        0.999997        0.855630    
     4     129.712       0.77094E-02   0.26033E-02    0.001751    0.677740E-05     1.00000        0.262464E-05
     5     171.410       0.58340E-02  -0.78492E-03    0.000528    0.616099E-06     1.00000        0.238593E-06
 -----------------------------------------------------------------------------------------------------------------
   sum                                                             2.44530                        0.946978    
 -----------------------------------------------------------------------------------------------------------------



          ***** PARTICIPATION FACTOR CALCULATION *****  Z  DIRECTION
                                                                                  CUMULATIVE     RATIO EFF.MASS
  MODE   FREQUENCY       PERIOD      PARTIC.FACTOR     RATIO    EFFECTIVE MASS   MASS FRACTION   TO TOTAL MASS
     1    0.627473E-03    1593.7      -0.49402E-01    0.256166    0.244056E-02    0.614489E-01    0.945142E-03
     2     25.0999       0.39841E-01  -0.67400E-04    0.000349    0.454271E-08    0.614490E-01    0.175923E-08
     3     25.1913       0.39696E-01   0.44510E-02    0.023080    0.198116E-04    0.619479E-01    0.767234E-05
     4     129.712       0.77094E-02  -0.19285        1.000000    0.371918E-01    0.998371        0.144031E-01
     5     171.410       0.58340E-02  -0.80435E-02    0.041708    0.646978E-04     1.00000        0.250551E-04
 -----------------------------------------------------------------------------------------------------------------
   sum                                                            0.397169E-01                    0.153809E-01
 -----------------------------------------------------------------------------------------------------------------

 *** ANSYS - ENGINEERING ANALYSIS SYSTEM  RELEASE 2021 R1          21.1     ***
 DISTRIBUTED ANSYS Mechanical Enterprise Academic Student      

 00000000  VERSION=WINDOWS x64   13:38:50  MAR 06, 2021 CP=      2.234

 simulacao_FE--Modal (A5)                                                      





          ***** PARTICIPATION FACTOR CALCULATION *****  X  DIRECTION
                                                                                  CUMULATIVE     RATIO EFF.MASS
  MODE   FREQUENCY       PERIOD      PARTIC.FACTOR     RATIO    EFFECTIVE MASS   MASS FRACTION   TO TOTAL MASS
  IMAGINARY COMPONENT

     1    0.627473E-03    1593.7        0.0000        0.000000     0.00000         0.00000         0.00000    
     2     25.0999       0.39841E-01   0.33809E-02    0.313276    0.114308E-04    0.891393E-01    0.442675E-05
     3     25.1913       0.39696E-01  -0.10792E-01    1.000000    0.116473E-03    0.997411        0.451057E-04
     4     129.712       0.77094E-02   0.35573E-03    0.032961    0.126541E-06    0.998398        0.490047E-07
     5     171.410       0.58340E-02   0.45321E-03    0.041994    0.205403E-06     1.00000        0.795450E-07
 -----------------------------------------------------------------------------------------------------------------
   sum                                                            0.128236E-03                    0.496610E-04
 -----------------------------------------------------------------------------------------------------------------



          ***** PARTICIPATION FACTOR CALCULATION *****  Y  DIRECTION
                                                                                  CUMULATIVE     RATIO EFF.MASS
  MODE   FREQUENCY       PERIOD      PARTIC.FACTOR     RATIO    EFFECTIVE MASS   MASS FRACTION   TO TOTAL MASS
  IMAGINARY COMPONENT

     1    0.627473E-03    1593.7        0.0000        0.000000     0.00000         0.00000         0.00000    
     2     25.0999       0.39841E-01   0.10728E-01    1.000000    0.115094E-03    0.906327        0.445719E-04
     3     25.1913       0.39696E-01   0.34065E-02    0.317526    0.116041E-04    0.997705        0.449385E-05
     4     129.712       0.77094E-02  -0.34056E-03    0.031744    0.115982E-06    0.998618        0.449156E-07
     5     171.410       0.58340E-02   0.41890E-03    0.039047    0.175478E-06     1.00000        0.679564E-07
 -----------------------------------------------------------------------------------------------------------------
   sum                                                            0.126990E-03                    0.491786E-04
 -----------------------------------------------------------------------------------------------------------------



          ***** PARTICIPATION FACTOR CALCULATION *****  Z  DIRECTION
                                                                                  CUMULATIVE     RATIO EFF.MASS
  MODE   FREQUENCY       PERIOD      PARTIC.FACTOR     RATIO    EFFECTIVE MASS   MASS FRACTION   TO TOTAL MASS
  IMAGINARY COMPONENT

     1    0.627473E-03    1593.7        0.0000        0.000000     0.00000         0.00000         0.00000    
     2     25.0999       0.39841E-01   0.29834E-04    0.000397    0.890051E-09    0.157776E-06    0.344685E-09
     3     25.1913       0.39696E-01   0.93808E-05    0.000125    0.879991E-10    0.173376E-06    0.340789E-10
     4     129.712       0.77094E-02  -0.26308E-02    0.035048    0.692101E-05    0.122704E-02    0.268026E-05
     5     171.410       0.58340E-02  -0.75062E-01    1.000000    0.563430E-02     1.00000        0.218196E-02
 -----------------------------------------------------------------------------------------------------------------
   sum                                                            0.564122E-02                    0.218464E-02
 -----------------------------------------------------------------------------------------------------------------
 ---------------- Campbell diagram point 3 ----------------

 CMOMEGA on component= cm_rotvelcity51                 
  OMEGAX, OMEGAY, OMEGAZ=   0.0000      0.0000      1000.0    
  X1, Y1, Z1=   0.0000      0.0000      0.0000    

 *****  ANSYS SOLVE    COMMAND  *****

 *** WARNING ***                         CP =       2.234   TIME= 13:38:50
 Material number 7 (used by element 1018) should normally have at least  
 one MP or one TB type command associated with it.  Output of energy by  
 material may not be available.                                          

 *** NOTE ***                            CP =       2.234   TIME= 13:38:50
 The step data was checked and warning messages were found.              
  Please review output or errors file (                                  
 C:\Users\vinig\Desktop\codes\TCC-assets\programas\ansys\_ProjectScratch 
 h\Scr8D6C\file0.err ) for these warning messages.                       

 *** ANSYS - ENGINEERING ANALYSIS SYSTEM  RELEASE 2021 R1          21.1     ***
 DISTRIBUTED ANSYS Mechanical Enterprise Academic Student      

 00000000  VERSION=WINDOWS x64   13:38:50  MAR 06, 2021 CP=      2.266

 simulacao_FE--Modal (A5)                                                      



                      L O A D   S T E P   O P T I O N S

   LOAD STEP NUMBER. . . . . . . . . . . . . . . .     3
   THERMAL STRAINS INCLUDED IN THE LOAD VECTOR . .   YES
   CORIOLIS EFFECT IN STATIONARY REF. FRAME  . . .    ON
   REUSE EIGENMODES FOR QRDAMP SOLVER. . . . . . .YES
   PRINT OUTPUT CONTROLS . . . . . . . . . . . . .NO PRINTOUT
   DATABASE OUTPUT CONTROLS
      ITEM     FREQUENCY   COMPONENT
       ALL       NONE               
      NSOL        ALL               
      ETMP        ALL               
      MISC        ALL       _ELMISC 


   *** GYROSCOPIC DAMPING MATRIX CALCULATED FOR LISTED ELEMENTS:
     TYPE     NUMBER   ENAME

        1       392  SOLID186
        2        61  BEAM188 


 *** WARNING ***                         CP =       2.422   TIME= 13:38:50
 The file0.modesym file does exist and is being used for the QR damp     
 eigensolution since the ReuseKey is set to ON on the QRDOPT command.    
                                                                         
 Time at end of state-space matrix formulation CP = 2.421875.            

  ***** DAMPED FREQUENCIES FROM REDUCED DAMPED EIGENSOLVER *****

               COMPLEX FREQUENCY (HERTZ)
  MODE     STABILITY            FREQUENCY         MODAL DAMPING RATIO


    1       0.0000000          0.57162914E-03j       0.0000000    
    2       0.0000000           25.099356    j       0.0000000    
    3       0.0000000           25.173323    j       0.0000000    
    4       0.0000000           72.579449    j       0.0000000    
    5       0.0000000           336.51413    j       0.0000000    
                                                                         
 Time at end of eigenproblem resolution CP = 2.421875.                   
                                                                         
 Time at end of mode shape normalization CP = 2.4375.                    

 *** ANSYS - ENGINEERING ANALYSIS SYSTEM  RELEASE 2021 R1          21.1     ***
 DISTRIBUTED ANSYS Mechanical Enterprise Academic Student      

 00000000  VERSION=WINDOWS x64   13:38:51  MAR 06, 2021 CP=      2.781

 simulacao_FE--Modal (A5)                                                      





          ***** PARTICIPATION FACTOR CALCULATION *****  X  DIRECTION
                                                                                  CUMULATIVE     RATIO EFF.MASS
  MODE   FREQUENCY       PERIOD      PARTIC.FACTOR     RATIO    EFFECTIVE MASS   MASS FRACTION   TO TOTAL MASS
     1    0.571629E-03    1749.4       0.38747E-01    0.026049    0.150131E-02    0.618585E-03    0.581403E-03
     2     25.0994       0.39842E-01   -1.4875        1.000000     2.21258        0.912271        0.856854    
     3     25.1733       0.39725E-01   0.46138        0.310178    0.212873        0.999981        0.824381E-01
     4     72.5794       0.13778E-01   0.67765E-02    0.004556    0.459206E-04     1.00000        0.177834E-04
     5     336.514       0.29716E-02   0.53473E-03    0.000359    0.285932E-06     1.00000        0.110731E-06
 -----------------------------------------------------------------------------------------------------------------
   sum                                                             2.42701                        0.939892    
 -----------------------------------------------------------------------------------------------------------------



          ***** PARTICIPATION FACTOR CALCULATION *****  Y  DIRECTION
                                                                                  CUMULATIVE     RATIO EFF.MASS
  MODE   FREQUENCY       PERIOD      PARTIC.FACTOR     RATIO    EFFECTIVE MASS   MASS FRACTION   TO TOTAL MASS
     1    0.571629E-03    1749.4       0.12248        0.082524    0.150024E-01    0.616873E-02    0.580990E-02
     2     25.0994       0.39842E-01   0.46244        0.311571    0.213854        0.941014E-01    0.828178E-01
     3     25.1733       0.39725E-01    1.4842        1.000000     2.20293        0.999906        0.853116    
     4     72.5794       0.13778E-01   0.15090E-01    0.010167    0.227717E-03     1.00000        0.881866E-04
     5     336.514       0.29716E-02  -0.41376E-03    0.000279    0.171193E-06     1.00000        0.662970E-07
 -----------------------------------------------------------------------------------------------------------------
   sum                                                             2.43202                        0.941832    
 -----------------------------------------------------------------------------------------------------------------



          ***** PARTICIPATION FACTOR CALCULATION *****  Z  DIRECTION
                                                                                  CUMULATIVE     RATIO EFF.MASS
  MODE   FREQUENCY       PERIOD      PARTIC.FACTOR     RATIO    EFFECTIVE MASS   MASS FRACTION   TO TOTAL MASS
     1    0.571629E-03    1749.4      -0.49402E-01    0.409596    0.244056E-02    0.143192        0.945142E-03
     2     25.0994       0.39842E-01  -0.83681E-04    0.000694    0.700249E-08    0.143193        0.271181E-08
     3     25.1733       0.39725E-01   0.40398E-02    0.033494    0.163198E-04    0.144150        0.632007E-05
     4     72.5794       0.13778E-01  -0.12061        1.000000    0.145471E-01    0.997659        0.563359E-02
     5     336.514       0.29716E-02  -0.63163E-02    0.052369    0.398956E-04     1.00000        0.154501E-04
 -----------------------------------------------------------------------------------------------------------------
   sum                                                            0.170439E-01                    0.660050E-02
 -----------------------------------------------------------------------------------------------------------------

 *** ANSYS - ENGINEERING ANALYSIS SYSTEM  RELEASE 2021 R1          21.1     ***
 DISTRIBUTED ANSYS Mechanical Enterprise Academic Student      

 00000000  VERSION=WINDOWS x64   13:38:51  MAR 06, 2021 CP=      2.781

 simulacao_FE--Modal (A5)                                                      





          ***** PARTICIPATION FACTOR CALCULATION *****  X  DIRECTION
                                                                                  CUMULATIVE     RATIO EFF.MASS
  MODE   FREQUENCY       PERIOD      PARTIC.FACTOR     RATIO    EFFECTIVE MASS   MASS FRACTION   TO TOTAL MASS
  IMAGINARY COMPONENT

     1    0.571629E-03    1749.4      -0.23913E-07    0.000000    0.571846E-15    0.300543E-13    0.221455E-15
     2     25.0994       0.39842E-01   0.41246E-01    0.313371    0.170127E-02    0.894131E-01    0.658842E-03
     3     25.1733       0.39725E-01  -0.13162        1.000000    0.173243E-01    0.999920        0.670908E-02
     4     72.5794       0.13778E-01   0.11451E-02    0.008700    0.131129E-05    0.999989        0.507815E-06
     5     336.514       0.29716E-02   0.44889E-03    0.003410    0.201505E-06     1.00000        0.780357E-07
 -----------------------------------------------------------------------------------------------------------------
   sum                                                            0.190271E-01                    0.736851E-02
 -----------------------------------------------------------------------------------------------------------------



          ***** PARTICIPATION FACTOR CALCULATION *****  Y  DIRECTION
                                                                                  CUMULATIVE     RATIO EFF.MASS
  MODE   FREQUENCY       PERIOD      PARTIC.FACTOR     RATIO    EFFECTIVE MASS   MASS FRACTION   TO TOTAL MASS
  IMAGINARY COMPONENT

     1    0.571629E-03    1749.4        0.0000        0.000000     0.00000         0.00000         0.00000    
     2     25.0994       0.39842E-01   0.13088        1.000000    0.171297E-01    0.908422        0.663373E-02
     3     25.1733       0.39725E-01   0.41525E-01    0.317277    0.172436E-02    0.999867        0.667781E-03
     4     72.5794       0.13778E-01  -0.15772E-02    0.012050    0.248740E-05    0.999999        0.963281E-06
     5     336.514       0.29716E-02   0.12205E-03    0.000933    0.148956E-07     1.00000        0.576852E-08
 -----------------------------------------------------------------------------------------------------------------
   sum                                                            0.188566E-01                    0.730248E-02
 -----------------------------------------------------------------------------------------------------------------



          ***** PARTICIPATION FACTOR CALCULATION *****  Z  DIRECTION
                                                                                  CUMULATIVE     RATIO EFF.MASS
  MODE   FREQUENCY       PERIOD      PARTIC.FACTOR     RATIO    EFFECTIVE MASS   MASS FRACTION   TO TOTAL MASS
  IMAGINARY COMPONENT

     1    0.571629E-03    1749.4      -0.26730E-07    0.000000    0.714469E-15    0.347817E-13    0.276688E-15
     2     25.0994       0.39842E-01   0.33563E-03    0.002343    0.112646E-06    0.548381E-05    0.436237E-07
     3     25.1733       0.39725E-01   0.82278E-04    0.000574    0.676968E-08    0.581337E-05    0.262165E-08
     4     72.5794       0.13778E-01  -0.49476E-02    0.034541    0.244789E-04    0.119749E-02    0.947981E-05
     5     336.514       0.29716E-02  -0.14324        1.000000    0.205169E-01     1.00000        0.794547E-02
 -----------------------------------------------------------------------------------------------------------------
   sum                                                            0.205415E-01                    0.795500E-02
 -----------------------------------------------------------------------------------------------------------------

 *GET  _NMODALSOLPROC  FROM  ACTI  ITEM=NUMC       VALUE=  2.00000000    

 FINISH SOLUTION PROCESSING


 ***** ROUTINE COMPLETED *****  CP =         2.844



 PRINTOUT RESUMED BY /GOP

 *GET  _WALLASOL  FROM  ACTI  ITEM=TIME WALL  VALUE=  13.6475000    

 *** ANSYS - ENGINEERING ANALYSIS SYSTEM  RELEASE 2021 R1          21.1     ***
 DISTRIBUTED ANSYS Mechanical Enterprise Academic Student      

 00000000  VERSION=WINDOWS x64   13:38:51  MAR 06, 2021 CP=      2.844

 simulacao_FE--Modal (A5)                                                      



          ***** ANSYS RESULTS INTERPRETATION (POST1) *****

 *** NOTE ***                            CP =       2.844   TIME= 13:38:51
 The model contains an element type ( COMBI214 ) that operates entirely  
 in the nodal coordinate system.  Viewing nodal displacements or forces  
 in other than the nodal coordinate system may be invalid.  See the      
 elements manual description for more information.                       

 *** NOTE ***                            CP =       2.844   TIME= 13:38:51
 Reading results into the database (SET command) will update the current 
 displacement and force boundary conditions in the database with the     
 values from the results file for that load set.  Note that any          
 subsequent solutions will use these values unless action is taken to    
 either SAVE the current values or not overwrite them (/EXIT,NOSAVE).    


 PRINT CAMPBELL DIAGRAM
    Sorting : ON
    X axis unit : rd/s
    Driving component : CM_ROTVELCITY51                 
    Printout all frequencies

 *** WARNING ***                         CP =       2.844   TIME= 13:38:51
 Sorting process may not be successful due to the shape of some modes.   
 If results are not satisfactory, try to change the load steps and/or    
 the number of modes.                                                    



     ***** FREQUENCIES (Hz) FROM CAMPBELL (sorting on) *****
    ** The driving component is CM_ROTVELCITY51                  **


 Spin(rd/s)         10.000        100.000       1000.000

     1               0.001          0.001          0.001
     2   BW         25.100         25.100         25.099
     3   FW         25.191         25.191         25.173
     4   BW        133.630        129.712         72.579
     5   FW        166.213        171.410        336.514


 PRINT CAMPBELL DIAGRAM
    Sorting : ON
    X axis unit : rd/s
    Driving component : CM_ROTVELCITY51                 
    Stability value : ON
    Printout all frequencies

 *** WARNING ***                         CP =       2.875   TIME= 13:38:51
 Sorting process may not be successful due to the shape of some modes.   
 If results are not satisfactory, try to change the load steps and/or    
 the number of modes.                                                    



     ***** STABILITY VALUES (Hz) FROM CAMPBELL (sorting on) *****
    ** The driving component is CM_ROTVELCITY51                  **


 Spin(rd/s)         10.000        100.000       1000.000

     1               0.000          0.000          0.000
     2   BW          0.000          0.000          0.000
     3   FW          0.000          0.000          0.000
     4   BW          0.000          0.000          0.000
     5   FW          0.000          0.000          0.000

 PRINTOUT RESUMED BY /GOP

 PRINTOUT RESUMED BY /GOP

 Set Encoding of XML File to:ISO-8859-1

 Set Output of XML File to:
     PARM,     ,     ,     ,     ,     ,     ,     ,     ,     ,     ,     ,
         ,     ,     ,     ,     ,     ,     ,

 DATABASE WRITTEN ON FILE  parm.xml                                                                                                                                                                                                                                                            

 EXIT THE ANSYS POST1 DATABASE PROCESSOR


 ***** ROUTINE COMPLETED *****  CP =         2.906



 PRINTOUT RESUMED BY /GOP

 *GET  _WALLDONE  FROM  ACTI  ITEM=TIME WALL  VALUE=  13.6475000    

 PARAMETER _PREPTIME =     0.000000000    

 PARAMETER _SOLVTIME =     3.000000000    

 PARAMETER _POSTTIME =     0.000000000    

 PARAMETER _TOTALTIM =     3.000000000    

 *GET  _DLBRATIO  FROM  ACTI  ITEM=SOLU DLBR  VALUE=  1.03056769    

 *GET  _COMBTIME  FROM  ACTI  ITEM=SOLU COMB  VALUE= 0.776109000E-01
 --- Total number of nodes = 2551
 --- Total number of elements = 477
 --- Element load balance ratio = 1.03056769
 --- Time to combine distributed files = 7.76109E-02

 EXIT ANSYS WITHOUT SAVING DATABASE


 NUMBER OF WARNING MESSAGES ENCOUNTERED=          9
 NUMBER OF ERROR   MESSAGES ENCOUNTERED=          0

+--------- D I S T R I B U T E D   A N S Y S   S T A T I S T I C S ------------+

Release: 2021 R1            Build: 21.1       Update: UP20201109   Platform: WINDOWS x64 
Date Run: 03/06/2021   Time: 13:38     Process ID: 11616
Operating System: Windows 10  (Build: 19042)

Processor Model: Intel(R) Core(TM) i7-7500U CPU @ 2.70GHz

Compiler: Intel(R) FORTRAN Compiler Version 19.0.0  (Build: 20190206)
          Intel(R) C/C++ Compiler Version 19.0.0  (Build: 20190206)
          Intel(R) Math Kernel Library Version 2020.0.0 Product Build 20191125

Number of machines requested            :    1
Total number of cores available         :    4
Number of physical cores available      :    2
Number of processes requested           :    2
Number of threads per process requested :    1
Total number of cores requested         :    2 (Distributed Memory Parallel)               
MPI Type: INTELMPI
MPI Version: Intel(R) MPI Library 2018 Update 3 for Windows* OS


GPU Acceleration: Not Requested

Job Name: file0
Input File: dummy.dat

  Core                Machine Name   Working Directory
 -----------------------------------------------------
     0             DESKTOP-9SHO0AQ   C:\Users\vinig\Desktop\codes\TCC-assets\programas\ansys\_ProjectScratch\Scr8D6C
     1             DESKTOP-9SHO0AQ   C:\Users\vinig\Desktop\codes\TCC-assets\programas\ansys\_ProjectScratch\Scr8D6C
 
Latency time from master to core     1 =    4.835 microseconds
 
Communication speed from master to core     1 =  1359.88 MB/sec

Total CPU time for main thread                    :        2.9 seconds
Total CPU time summed for all threads             :        3.1 seconds

Elapsed time spent obtaining a license            :        0.5 seconds
Elapsed time spent pre-processing model (/PREP7)  :        0.0 seconds
Elapsed time spent solution - preprocessing       :        0.1 seconds
Elapsed time spent computing solution             :        2.5 seconds
Elapsed time spent solution - postprocessing      :        0.1 seconds
Elapsed time spent post-processing model (/POST1) :        0.0 seconds
 
Eigensolver used                                  :            QRdamp
Equation solver computational rate                :       10.9 Gflops
Equation solver effective I/O rate                :        6.9 GB/sec

Maximum total memory used                         :      148.0 MB
Maximum total memory allocated                    :     3136.0 MB
Total physical memory available                   :          8 GB

Total amount of I/O written to disk               :        0.1 GB
Total amount of I/O read from disk                :        1.1 GB

+------ E N D   D I S T R I B U T E D   A N S Y S   S T A T I S T I C S -------+


 *---------------------------------------------------------------------------*
 |                                                                           |
 |                       DISTRIBUTED ANSYS RUN COMPLETED                     |
 |                                                                           |
 |---------------------------------------------------------------------------|
 |                                                                           |
 | Ansys 2021 R1               Build 21.1         UP20201109     WINDOWS x64 |
 |                                                                           |
 |---------------------------------------------------------------------------|
 |                                                                           |
 | Database Requested(-db)  1024 MB    Scratch Memory Requested      1024 MB |
 | Maximum Database Used       2 MB    Maximum Scratch Memory Used     78 MB |
 |                                                                           |
 |---------------------------------------------------------------------------|
 |                                                                           |
 |        CP Time      (sec) =          3.094       Time  =  13:38:51        |
 |        Elapsed Time (sec) =          5.000       Date  =  03/06/2021      |
 |                                                                           |
 *---------------------------------------------------------------------------*
