
 ANSYS Mechanical Enterprise                       


 *------------------------------------------------------------------*
 |                                                                  |
 |   W E L C O M E   T O   T H E   A N S Y S (R)  P R O G R A M     |
 |                                                                  |
 *------------------------------------------------------------------*




 ***************************************************************
 *            ANSYS Release 18.1     LEGAL NOTICES             *
 ***************************************************************
 *                                                             *
 * Copyright 2017 SAS IP, Inc.  All rights reserved.           *
 * Unauthorized use, distribution or duplication is            *
 * prohibited.                                                 *
 *                                                             *
 * Ansys is a registered trademark of ANSYS, Inc. or its       *
 * subsidiaries in the United States or other countries.       *
 * See the ANSYS, Inc. online documentation or the ANSYS, Inc. *
 * documentation CD or online help for the complete Legal      *
 * Notice.                                                     *
 *                                                             *
 ***************************************************************
 *                                                             *
 * THIS ANSYS SOFTWARE PRODUCT AND PROGRAM DOCUMENTATION       *
 * INCLUDE TRADE SECRETS AND CONFIDENTIAL AND PROPRIETARY      *
 * PRODUCTS OF ANSYS, INC., ITS SUBSIDIARIES, OR LICENSORS.    *
 * The software products and documentation are furnished by    *
 * ANSYS, Inc. or its subsidiaries under a software license    *
 * agreement that contains provisions concerning               *
 * non-disclosure, copying, length and nature of use,          *
 * compliance with exporting laws, warranties, disclaimers,    *
 * limitations of liability, and remedies, and other           *
 * provisions.  The software products and documentation may be *
 * used, disclosed, transferred, or copied only in accordance  *
 * with the terms and conditions of that software license      *
 * agreement.                                                  *
 *                                                             *
 * ANSYS, Inc. is a UL registered                              *
 * ISO 9001:2008 company.                                      *
 *                                                             *
 ***************************************************************
 *                                                             *
 * This product is subject to U.S. laws governing export and   *
 * re-export.                                                  *
 *                                                             *
 * For U.S. Government users, except as specifically granted   *
 * by the ANSYS, Inc. software license agreement, the use,     *
 * duplication, or disclosure by the United States Government  *
 * is subject to restrictions stated in the ANSYS, Inc.        *
 * software license agreement and FAR 12.212 (for non-DOD      *
 * licenses).                                                  *
 *                                                             *
 ***************************************************************

 Release 18.1
     
 Point Releases and Patches installed:   
     
 ANSYS, Inc. Products Release 18.1   
 ANSYS Mechanical Products Release 18.1  
 ANSYS Autodyn Release 18.1  
 ANSYS LS-DYNA Release 18.1  
 ANSYS AIM Release 18.1  
 ANSYS CFX (includes ANSYS CFD-Post) Release 18.1
 ANSYS Fluent (includes ANSYS CFD-Post) Release 18.1 
 ANSYS TurboGrid Release 18.1
 ANSYS FENSAP-ICE Release 18.1   
 ANSYS Polyflow (includes ANSYS CFD-Post) Release 18.1   
 ANSYS CFD-Post only Release 18.1
 ANSYS Forte Release 18.1
 ANSYS Chemkin Release 18.1  
 ANSYS ICEM CFD Release 18.1 
 ANSYS Aqwa Release 18.1 
 ANSYS Viewer Release 18.1   
 ANSYS Icepak (includes ANSYS CFD-Post) Release 18.1 
 AutoCAD Release 18.1
 ACIS Release 18.1   
 Catia, Version 4 Release 18.1   
 Catia, Version 6 Release 18.1   
 Creo Elements/Direct Modeling Release 18.1  
 Inventor Release 18.1   
 JTOpen Release 18.1 
 NX Release 18.1 
 Parasolid Release 18.1  
 Creo Parametric Release 18.1
 Solid Edge Release 18.1 
 SolidWorks Release 18.1 
 ANSYS, Inc. License Manager Release 18.1


          *****  ANSYS COMMAND LINE ARGUMENTS  *****
  BATCH MODE REQUESTED (-b)    = NOLIST
  INPUT FILE COPY MODE (-c)    = COPY
  DISTRIBUTED MEMORY PARALLEL REQUESTED
       2 PARALLEL PROCESSES REQUESTED WITH SINGLE THREAD PER PROCESS
    TOTAL OF     2 CORES REQUESTED
  MPI OPTION                   = INTELMPI
  INPUT FILE NAME              = C:\Users\vinig\OneDrive\Ambiente de Trabalho\Vinícius\TCC\Computacional\ANSYS\_ProjectScratch\Scr9BA0\dummy.dat
  OUTPUT FILE NAME             = C:\Users\vinig\OneDrive\Ambiente de Trabalho\Vinícius\TCC\Computacional\ANSYS\_ProjectScratch\Scr9BA0\solve.out
  START-UP FILE MODE           = NOREAD
  STOP FILE MODE               = NOREAD

 RELEASE= Release 18.1         BUILD= 18.1      UP20170403   VERSION=WINDOWS x64 
 CURRENT JOBNAME=file0  18:00:13  JUN 27, 2019 CP=      0.141


 PARAMETER _DS_PROGRESS =     999.0000000    

 /INPUT FILE= ds.dat  LINE=       0



 *** NOTE ***                            CP =       0.312   TIME= 18:00:14
 The /CONFIG,NOELDB command is not valid in a Distributed ANSYS          
 solution.  Command is ignored.                                          

 *GET  _WALLSTRT  FROM  ACTI  ITEM=TIME WALL  VALUE=  18.0038889    

 TITLE= 
 simulacao_FE--Modal (A5)                                                      

  ACT Extensions:
      MechanicalDropTest, 2.0
      f0fd899f-9d88-4f46-8cf1-36bf5c218d65, wbex
  

 SET PARAMETER DIMENSIONS ON  _WB_PROJECTSCRATCH_DIR
  TYPE=STRI  DIMENSIONS=      248        1        1

 PARAMETER _WB_PROJECTSCRATCH_DIR(1) = C:\Users\vinig\OneDrive\Ambiente de Trabalho\Vinícius\TCC\Computacional\ANSYS\_ProjectScratch\Scr9BA0\

 SET PARAMETER DIMENSIONS ON  _WB_SOLVERFILES_DIR
  TYPE=STRI  DIMENSIONS=      248        1        1

 PARAMETER _WB_SOLVERFILES_DIR(1) = C:\Users\vinig\OneDrive\Ambiente de Trabalho\Vinícius\TCC\Computacional\ANSYS\simulacao_FE_files\dp0\SYS\MECH\

 SET PARAMETER DIMENSIONS ON  _WB_USERFILES_DIR
  TYPE=STRI  DIMENSIONS=      248        1        1

 PARAMETER _WB_USERFILES_DIR(1) = C:\Users\vinig\OneDrive\Ambiente de Trabalho\Vinícius\TCC\Computacional\ANSYS\simulacao_FE_files\user_files\
 --- Data in consistent NMM units. See Solving Units in the help system for more

 MPA UNITS SPECIFIED FOR INTERNAL    
  LENGTH      = MILLIMETERS (mm)
  MASS        = TONNE (Mg)
  TIME        = SECONDS (sec)
  TEMPERATURE = CELSIUS (C)
  TOFFSET     = 273.0
  FORCE       = NEWTON (N)
  HEAT        = MILLIJOULES (mJ)

 INPUT  UNITS ARE ALSO SET TO MPA 

 *** ANSYS - ENGINEERING ANALYSIS SYSTEM  RELEASE Release 18.1     18.1     ***
 DISTRIBUTED ANSYS Mechanical Enterprise                       

 00000000  VERSION=WINDOWS x64   18:00:14  JUN 27, 2019 CP=      0.328

 simulacao_FE--Modal (A5)                                                      



          ***** ANSYS ANALYSIS DEFINITION (PREP7) *****
 *********** Nodes for the whole assembly ***********
 *********** Nodes for all Remote Points ***********
 *********** Elements for Body 1 "Disco" ***********
 *********** Elements for Body 2 "Line Body" ***********
 *********** Send User Defined Coordinate System(s) ***********
 *********** Set Reference Temperature ***********
 *********** Send Materials ***********
 *********** Send Beam Properties ***********
 *********** Create Contact "Bonded - Line Body To Disco" ***********
             Real Constant Set For Above Contact Is 4 & 3
 *********** Create Remote Point "Internal Remote Point 5" ***********
 *********** Create Remote Point "Internal Remote Point 6" ***********
 *********** Construct Remote Displacement ***********
 *********** Construct Remote Displacement ***********
 *** Create a component for all remote displacements ***
 *********** Create Bearing Connection "Ground To Line Body" ***********
             Real Constant Set For Above Bearing Connection Is 7
 *********** Create Bearing Connection "Ground To Line Body" ***********
             Real Constant Set For Above Bearing Connection Is 8
 *********** Define Rotational Velocity ***********


 ***** ROUTINE COMPLETED *****  CP =         1.234


 --- Number of total nodes = 2551
 --- Number of contact elements = 16
 --- Number of spring elements = 0
 --- Number of bearing elements = 0
 --- Number of solid elements = 453
 --- Number of condensed parts = 0
 --- Number of total elements = 477

 *GET  _WALLBSOL  FROM  ACTI  ITEM=TIME WALL  VALUE=  18.0044444    

 *****  ANSYS SOLUTION ROUTINE  *****


 PERFORM A MODAL ANALYSIS
  THIS WILL BE A NEW ANALYSIS


 USE QRDAMP MODE EXTRACTION METHOD
  EXTRACT    5 MODES
  COMPUTE COMPLEX MODE SHAPES: YES 
  NORMALIZE THE MODE SHAPES TO THE MASS MATRIX

 QRDAMP EIGENSOLVER OPTIONS
  REUSE EIGENMODES FROM MODESYM FILE: Yes 
  SYMMETRIZE CONTACT STIFFNESS MATRIX AT ELEMENT LEVEL


 CORIOLIS IN STATIONARY REFERENCE FRAME: GYROSCOPIC DAMPING MATRIX WILL BE CALCULATED

 ERASE THE CURRENT DATABASE OUTPUT CONTROL TABLE.


 WRITE ALL  ITEMS TO THE DATABASE WITH A FREQUENCY OF NONE
   FOR ALL APPLICABLE ENTITIES

 WRITE NSOL ITEMS TO THE DATABASE WITH A FREQUENCY OF ALL 
   FOR ALL APPLICABLE ENTITIES

 PRINTOUT RESUMED BY /GOP

 WRITE MISC ITEMS TO THE DATABASE WITH A FREQUENCY OF ALL 
   FOR THE ENTITIES DEFINED BY COMPONENT _ELMISC 


 EXPAND ALL EXTRACTED MODES
  CALCULATE ELEMENT RESULTS AND NODAL DOF SOLUTION
  CALCULATE STRESSES IN ANY DOWNSTREAM MODE SUPERPOSITION EXPANSION PASS
 ---------------- Campbell diagram point 1 ----------------

 CMOMEGA on component= cm_rotvelcity51                 
  OMEGAX, OMEGAY, OMEGAZ=   0.0000      0.0000      10.000    
  X1, Y1, Z1=   0.0000      0.0000      0.0000    

 *GET  ANSINTER_  FROM  ACTI  ITEM=INT        VALUE=  0.00000000    

 *IF  ANSINTER_                         ( =   0.00000     )  NE  
      0                                 ( =   0.00000     )  THEN    

 *ENDIF

 *****  ANSYS SOLVE    COMMAND  *****

 *** WARNING ***                         CP =       1.344   TIME= 18:00:17
 Element shape checking is currently inactive.  Issue SHPP,ON or         
 SHPP,WARN to reactivate, if desired.                                    

 *** WARNING ***                         CP =       1.438   TIME= 18:00:17
 Make sure that the rotating element component 1 (component name         
 CM_ROTVE) is axisymmetric about the axis of spin defined by the         
 CMOMEGA command to correctly account for the gyroscopic effect in the   
 stationary reference frame (CORIOLIS, ON,,, ON).                        

 *** WARNING ***                         CP =       1.438   TIME= 18:00:17
 SOLID186 will generate a gyroscopic damping matrix contribution         
 (stationary frame ON on the CORIOLIS command) in a dynamic analysis.    
 The element matrix will be non-symmetric.                               

 *** WARNING ***                         CP =       1.438   TIME= 18:00:17
 BEAM188 will generate a gyroscopic damping matrix contribution          
 (stationary frame ON on the CORIOLIS command) in a dynamic analysis.    
 The element matrix will be non-symmetric.                               

 *** NOTE ***                            CP =       1.641   TIME= 18:00:17
 The model data was checked and warning messages were found.             
  Please review output or errors file (                                  
 C:\Users\vinig\OneDrive\Ambiente de                                     
 Trabalho\Vinícius\TCC\Computacional\ANSYS\_ProjectScratch\Scr9BA0\file0 
 0.err ) for these warning messages.                                     

 *** SELECTION OF ELEMENT TECHNOLOGIES FOR APPLICABLE ELEMENTS ***
      --- GIVE SUGGESTIONS AND RESET THE KEY OPTIONS ---

 ELEMENT TYPE    1 IS SOLID186. KEYOPT(2)=0 IS SUGGESTED AND HAS BEEN RESET.
  KEYOPT(1-12)=    0    0    0    0    0    0    0    0    0    0    0    0

 ELEMENT TYPE    2 IS BEAM188 . KEYOPT(3) IS ALREADY SET AS SUGGESTED AND NO
 RESETTING IS NEEDED.

 ELEMENT TYPE    2 IS BEAM188 . KEYOPT(15) IS ALREADY SET AS SUGGESTED AND NO
 RESETTING IS NEEDED.



 *** ANSYS - ENGINEERING ANALYSIS SYSTEM  RELEASE Release 18.1     18.1     ***
 DISTRIBUTED ANSYS Mechanical Enterprise                       

 00000000  VERSION=WINDOWS x64   18:00:17  JUN 27, 2019 CP=      1.672

 simulacao_FE--Modal (A5)                                                      



                       S O L U T I O N   O P T I O N S

   PROBLEM DIMENSIONALITY. . . . . . . . . . . . .3-D                  
   DEGREES OF FREEDOM. . . . . . UX   UY   UZ   ROTX ROTY ROTZ
   ANALYSIS TYPE . . . . . . . . . . . . . . . . .MODAL                
      EXTRACTION METHOD. . . . . . . . . . . . . .QRDAMP
      QRDAMP BASE EIGENSOLVER. . . . . . . . . . .BLOCK LANCZOS
      COMPLEX SOLUTION OUTPUT. . . . . . . . . . .ON
   OFFSET TEMPERATURE FROM ABSOLUTE ZERO . . . . .  273.15    
   NUMBER OF MODES TO EXTRACT. . . . . . . . . . .     5
   GLOBALLY ASSEMBLED MATRIX . . . . . . . . . . .UNSYMMETRIC
   NUMBER OF MODES TO EXPAND . . . . . . . . . . .ALL
   ELEMENT RESULTS CALCULATION . . . . . . . . . .ON 

 *** WARNING ***                         CP =       1.672   TIME= 18:00:17
 Material number 7 (used by element 461 ) should normally have at least  
 one MP or one TB type command associated with it.  Output of energy by  
 material may not be available.                                          

 *** NOTE ***                            CP =       1.672   TIME= 18:00:17
 The step data was checked and warning messages were found.              
  Please review output or errors file (                                  
 C:\Users\vinig\OneDrive\Ambiente de                                     
 Trabalho\Vinícius\TCC\Computacional\ANSYS\_ProjectScratch\Scr9BA0\file0 
 0.err ) for these warning messages.                                     

 *** NOTE ***                            CP =       1.688   TIME= 18:00:17
 Internal nodes from 2552 to 2614 are created.                           
 2 internal nodes are used for handling degrees of freedom on pilot      
 nodes of rigid target surfaces.                                         
 61 internal nodes are used for quadratic and/or cubic options of        
 BEAM188, PIPE288, and/or SHELL208.                                      

 *** NOTE ***                            CP =       1.688   TIME= 18:00:17
 Internal nodes from 2552 to 2558 are created.                           
 2 internal nodes are used for handling degrees of freedom on pilot      
 nodes of rigid target surfaces.                                         
 5 internal nodes are used for quadratic and/or cubic options of         
 BEAM188, PIPE288, and/or SHELL208.                                      

 *** NOTE ***                            CP =       1.891   TIME= 18:00:18
 Deformable-deformable contact pair identified by real constant set 3    
 and contact element type 3 has been set up.                             
 Node-surface contact pair is defined
 Contact force based contact model
 Contact algorithm: Augmented Lagrange method
 Contact detection at: nodal point (normal to target surface)
 Contact stiffness factor FKN                  10.000    
 The resulting initial contact stiffness      0.19833E+09
 Default penetration tolerance factor FTOLN   0.10000    
 The resulting penetration tolerance          0.49583    
 Default opening contact stiffness OPSF will be used.
 Default tangent stiffness factor FKT          1.0000    
 Default elastic slip factor SLTOL            0.50000E-02
 The resulting elastic slip tolerance         0.24792E-01
 Update contact stiffness at each iteration
 Default Max. friction stress TAUMAX          0.10000E+21
 Average contact surface length                4.9583    
 Average contact pair depth                    4.9583    
 User defined pinball region PINB              15.000    
 Default target edge extension factor TOLS     10.000    
 Initial penetration/gap is excluded.
 Bonded contact (always) is defined.

 *** NOTE ***                            CP =       1.906   TIME= 18:00:18
 Min.  Initial gap 6.36357626 was detected between contact element 465   
 and target element 475.                                                 
 The gap is closed due to initial settings.                              
 *WARNING*: The initial penetration/gap is relatively large.  Bonded/no  
 separation option may cause an accuracy issue.  Switch to MPC           
 algorithm or you may use the CNCHECK,ADJUST/MORPH command to move the   
 contact nodes towards the target surface.                               
 ****************************************
  

 *** NOTE ***                            CP =       1.906   TIME= 18:00:18
 Rigid target surface identified by real constant set 5.  The degrees    
 of freedom of the rigid surface are driven by the pilot node 2546.      
 Internal MPC will be built.                                             
 Boundary conditions can be applied on any target node.
 The rigid surface does not overlap other elements.                      
 The used degrees of freedom set is  UX   UY   UZ   ROTX ROTY ROTZ
 ****************************************
  

 *** NOTE ***                            CP =       1.906   TIME= 18:00:18
 Rigid target surface identified by real constant set 6.  The degrees    
 of freedom of the rigid surface are driven by the pilot node 2547.      
 Internal MPC will be built.                                             
 Boundary conditions can be applied on any target node.
 The rigid surface does not overlap other elements.                      
 The used degrees of freedom set is  UX   UY   UZ   ROTX ROTY ROTZ
 ****************************************
  
  
  

 *** NOTE ***                            CP =       1.906   TIME= 18:00:18
 Internal nodes from 2552 to 2614 are created.                           
 2 internal nodes are used for handling degrees of freedom on pilot      
 nodes of rigid target surfaces.                                         
 61 internal nodes are used for quadratic and/or cubic options of        
 BEAM188, PIPE288, and/or SHELL208.                                      

  
  
     D I S T R I B U T E D   D O M A I N   D E C O M P O S E R
  
  ...Number of elements: 477
  ...Number of nodes:    2614
  ...Decompose to 2 CPU domains
  ...Element load balance ratio =     1.008


                      L O A D   S T E P   O P T I O N S

   LOAD STEP NUMBER. . . . . . . . . . . . . . . .     1
   THERMAL STRAINS INCLUDED IN THE LOAD VECTOR . .   YES
   CORIOLIS EFFECT IN STATIONARY REF. FRAME  . . .    ON
   REUSE EIGENMODES FOR QRDAMP SOLVER. . . . . . .YES
   PRINT OUTPUT CONTROLS . . . . . . . . . . . . .NO PRINTOUT
   DATABASE OUTPUT CONTROLS
      ITEM     FREQUENCY   COMPONENT
       ALL       NONE               
      NSOL        ALL               
      MISC        ALL       _ELMISC 


 *** NOTE ***                            CP =       2.484   TIME= 18:00:18
 Deformable-deformable contact pair identified by real constant set 3    
 and contact element type 3 has been set up.                             
 Node-surface contact pair is defined
 Contact force based contact model
 Contact algorithm: Augmented Lagrange method
 Contact detection at: nodal point (normal to target surface)
 Contact stiffness factor FKN                  10.000    
 The resulting initial contact stiffness      0.19833E+09
 Default penetration tolerance factor FTOLN   0.10000    
 The resulting penetration tolerance          0.49583    
 Default opening contact stiffness OPSF will be used.
 Default tangent stiffness factor FKT          1.0000    
 Default elastic slip factor SLTOL            0.50000E-02
 The resulting elastic slip tolerance         0.24792E-01
 Update contact stiffness at each iteration
 Default Max. friction stress TAUMAX          0.10000E+21
 Average contact surface length                4.9583    
 Average contact pair depth                    4.9583    
 User defined pinball region PINB              15.000    
 Default target edge extension factor TOLS     10.000    
 Initial penetration/gap is excluded.
 Bonded contact (always) is defined.

 *** NOTE ***                            CP =       2.484   TIME= 18:00:18
 Min.  Initial gap 6.36357626 was detected between contact element 465   
 and target element 475.                                                 
 The gap is closed due to initial settings.                              
 *WARNING*: The initial penetration/gap is relatively large.  Bonded/no  
 separation option may cause an accuracy issue.  Switch to MPC           
 algorithm or you may use the CNCHECK,ADJUST/MORPH command to move the   
 contact nodes towards the target surface.                               
 ****************************************
  


                         ***********  PRECISE MASS SUMMARY  ***********

   TOTAL RIGID BODY MASS MATRIX ABOUT ORIGIN
               Translational mass               |   Coupled translational/rotational mass
        0.25822E-02    0.0000        0.0000     |     0.0000       0.12911E-01   0.27239E-09
         0.0000       0.25822E-02    0.0000     |   -0.12911E-01    0.0000      -0.12958E-09
         0.0000        0.0000       0.25822E-02 |   -0.27239E-09   0.12958E-09    0.0000    
     ------------------------------------------ | ------------------------------------------
                                                |         Rotational mass (inertia)
                                                |     22.035      -0.45278E-09  -0.10070E-08
                                                |   -0.45278E-09    22.035      -0.30115E-08
                                                |   -0.10070E-08  -0.30115E-08    8.1367    

   TOTAL MASS = 0.25822E-02
     The mass principal axes coincide with the global Cartesian axes

   CENTER OF MASS (X,Y,Z)=  -0.50184E-07  -0.10549E-06    5.0000    

   TOTAL INERTIA ABOUT CENTER OF MASS
         21.970      -0.45278E-09  -0.16550E-08
       -0.45278E-09    21.970      -0.43735E-08
       -0.16550E-08  -0.43735E-08    8.1367    
     The inertia principal axes coincide with the global Cartesian axes


  *** MASS SUMMARY BY ELEMENT TYPE ***

  TYPE      MASS
     1  0.198603E-02
     2  0.596184E-03

 Range of element maximum matrix coefficients in global coordinates
 Maximum = 198333333 at element 464.                                     
 Minimum = 100000 at element 463.                                        

   *** ELEMENT MATRIX FORMULATION TIMES
     TYPE    NUMBER   ENAME      TOTAL CP  AVE CP

        1       392  SOLID186      0.172   0.000438
        2        61  BEAM188       0.000   0.000000
        3         2  CONTA175      0.000   0.000000
        4        16  TARGE170      0.000   0.000000
        5         2  TARGE170      0.000   0.000000
        6         2  TARGE170      0.000   0.000000
        7         1  COMBI214      0.000   0.000000
        8         1  COMBI214      0.000   0.000000
 Time at end of element matrix formulation CP = 2.6875.                  

  BLOCK LANCZOS CALCULATION OF UP TO    5 EIGENVECTORS.
  NUMBER OF EQUATIONS              =         8000
  MAXIMUM WAVEFRONT                =          600
  MAXIMUM MODES STORED             =            5
  MINIMUM EIGENVALUE               =  0.00000E+00
  MAXIMUM EIGENVALUE               =  0.10000E+31


  Local memory allocated for solver              =     15.971 MB
  Local memory required for in-core solution     =     15.218 MB
  Local memory required for out-of-core solution =      7.944 MB

  Total memory allocated for solver              =     33.512 MB
  Total memory required for in-core solution     =     31.929 MB
  Total memory required for out-of-core solution =     15.991 MB

 *** NOTE ***                            CP =       2.969   TIME= 18:00:23
 The Distributed Sparse Matrix Solver used by the Block Lanczos          
 eigensolver is currently running in the in-core memory mode.  This      
 memory mode uses the most amount of memory in order to avoid using the  
 hard drive as much as possible, which most often results in the         
 fastest solution time.  This mode is recommended if enough physical     
 memory is present to accommodate all of the solver data.                

 *** ANSYS - ENGINEERING ANALYSIS SYSTEM  RELEASE Release 18.1     18.1     ***
 DISTRIBUTED ANSYS Mechanical Enterprise                       

 00000000  VERSION=WINDOWS x64   18:00:26  JUN 27, 2019 CP=      3.156

 simulacao_FE--Modal (A5)                                                      


 NEGATIVE FREQUENCY OF -0.2057E-03 SET TO ZERO

 *** WARNING ***                         CP =       3.156   TIME= 18:00:26
 There are 1 negative frequencies.  If the corresponding eigenmodes do   
 not correspond to rigid body modes, the downstream QR Damp              
 eigensolution may be incorrect.  Check your model carefully.  If        
 negative frequencies are expected, you may want to double-check the     
 eigensolutions using another eigensolver.                               

 *** UNDAMPED FREQUENCIES FROM BLOCK LANCZOS ITERATION ***

  MODE    FREQUENCY (HERTZ)      


    1     0.000000000000    
    2     25.09813293211    
    3     25.18967260828    
    4     133.6651953979    
    5     166.1390718593    
                                                                         
 Time at end of state-space matrix formulation CP = 3.203125.            

  ***** DAMPED FREQUENCIES FROM REDUCED DAMPED EIGENSOLVER *****

               COMPLEX FREQUENCY (HERTZ)
  MODE     STABILITY            FREQUENCY         MODAL DAMPING RATIO


    1      0.20566485E-03       0.0000000    j      N/A
    2       0.0000000           25.098133    j       0.0000000    
    3       0.0000000           25.189671    j       0.0000000    
    4       0.0000000           133.61912    j       0.0000000    
    5       0.0000000           166.19810    j       0.0000000    
                                                                         
 Time at end of eigenproblem resolution CP = 3.203125.                   
                                                                         
 Time at end of mode shape normalization CP = 3.21875.                   

   *** ELEMENT RESULT CALCULATION TIMES
     TYPE    NUMBER   ENAME      TOTAL CP  AVE CP

        1       392  SOLID186      0.016   0.000040
        2        61  BEAM188       0.000   0.000000
        3         2  CONTA175      0.000   0.000000
        7         1  COMBI214      0.000   0.000000
        8         1  COMBI214      0.000   0.000000

   *** NODAL LOAD CALCULATION TIMES
     TYPE    NUMBER   ENAME      TOTAL CP  AVE CP

        1       392  SOLID186      0.000   0.000000
        2        61  BEAM188       0.000   0.000000
        3         2  CONTA175      0.000   0.000000
        7         1  COMBI214      0.000   0.000000
        8         1  COMBI214      0.000   0.000000

 *** ANSYS - ENGINEERING ANALYSIS SYSTEM  RELEASE Release 18.1     18.1     ***
 DISTRIBUTED ANSYS Mechanical Enterprise                       

 00000000  VERSION=WINDOWS x64   18:00:29  JUN 27, 2019 CP=      3.469

 simulacao_FE--Modal (A5)                                                      





          ***** PARTICIPATION FACTOR CALCULATION *****  X  DIRECTION
                                                                                  CUMULATIVE     RATIO EFF.MASS
  MODE   FREQUENCY       PERIOD      PARTIC.FACTOR     RATIO    EFFECTIVE MASS   MASS FRACTION   TO TOTAL MASS
     1     0.00000        0.0000       0.12253E-02    0.025979    0.150131E-05    0.613939E-03    0.581404E-03
     2     25.0981       0.39844E-01   0.47163E-01    1.000000    0.222439E-02    0.910247        0.861428    
     3     25.1897       0.39699E-01   0.14815E-01    0.314115    0.219476E-03    0.999998        0.849953E-01
     4     133.619       0.74840E-02  -0.61429E-04    0.001302    0.377354E-08     1.00000        0.146136E-05
     5     166.198       0.60169E-02  -0.30623E-04    0.000649    0.937769E-09     1.00000        0.363164E-06
 -----------------------------------------------------------------------------------------------------------------
   sum                                                            0.244538E-02                    0.947006    
 -----------------------------------------------------------------------------------------------------------------



          ***** PARTICIPATION FACTOR CALCULATION *****  Y  DIRECTION
                                                                                  CUMULATIVE     RATIO EFF.MASS
  MODE   FREQUENCY       PERIOD      PARTIC.FACTOR     RATIO    EFFECTIVE MASS   MASS FRACTION   TO TOTAL MASS
     1     0.00000        0.0000       0.38733E-02    0.082403    0.150024E-04    0.613496E-02    0.580990E-02
     2     25.0981       0.39844E-01  -0.14865E-01    0.316253    0.220976E-03    0.964989E-01    0.855762E-01
     3     25.1897       0.39699E-01   0.47004E-01    1.000000    0.220942E-02    0.999997        0.855628    
     4     133.619       0.74840E-02  -0.78148E-04    0.001663    0.610710E-08     1.00000        0.236506E-05
     5     166.198       0.60169E-02   0.28899E-04    0.000615    0.835154E-09     1.00000        0.323425E-06
 -----------------------------------------------------------------------------------------------------------------
   sum                                                            0.244540E-02                    0.947017    
 -----------------------------------------------------------------------------------------------------------------



          ***** PARTICIPATION FACTOR CALCULATION *****  Z  DIRECTION
                                                                                  CUMULATIVE     RATIO EFF.MASS
  MODE   FREQUENCY       PERIOD      PARTIC.FACTOR     RATIO    EFFECTIVE MASS   MASS FRACTION   TO TOTAL MASS
     1     0.00000        0.0000      -0.15622E-02    0.243713    0.244056E-05    0.559452E-01    0.945140E-03
     2     25.0981       0.39844E-01   0.20292E-05    0.000317    0.411784E-11    0.559453E-01    0.159469E-08
     3     25.1897       0.39699E-01   0.14090E-03    0.021981    0.198536E-07    0.564004E-01    0.768859E-05
     4     133.619       0.74840E-02   0.64101E-02    1.000000    0.410894E-04    0.998298        0.159125E-01
     5     166.198       0.60169E-02   0.27247E-03    0.042507    0.742408E-07     1.00000        0.287508E-04
 -----------------------------------------------------------------------------------------------------------------
   sum                                                            0.436241E-04                    0.168940E-01
 -----------------------------------------------------------------------------------------------------------------

 *** ANSYS - ENGINEERING ANALYSIS SYSTEM  RELEASE Release 18.1     18.1     ***
 DISTRIBUTED ANSYS Mechanical Enterprise                       

 00000000  VERSION=WINDOWS x64   18:00:29  JUN 27, 2019 CP=      3.469

 simulacao_FE--Modal (A5)                                                      





          ***** PARTICIPATION FACTOR CALCULATION *****  X  DIRECTION
                                                                                  CUMULATIVE     RATIO EFF.MASS
  MODE   FREQUENCY       PERIOD      PARTIC.FACTOR     RATIO    EFFECTIVE MASS   MASS FRACTION   TO TOTAL MASS
  IMAGINARY COMPONENT

     1     0.00000        0.0000        0.0000        0.000000     0.00000         0.00000         0.00000    
     2     25.0981       0.39844E-01  -0.10668E-04    0.313304    0.113808E-09    0.890197E-01    0.440739E-07
     3     25.1897       0.39699E-01  -0.34050E-04    1.000000    0.115943E-08    0.995912        0.449004E-06
     4     133.619       0.74840E-02  -0.12980E-05    0.038120    0.168481E-11    0.997229        0.652465E-09
     5     166.198       0.60169E-02  -0.18820E-05    0.055272    0.354200E-11     1.00000        0.137169E-08
 -----------------------------------------------------------------------------------------------------------------
   sum                                                            0.127846E-08                    0.495102E-06
 -----------------------------------------------------------------------------------------------------------------



          ***** PARTICIPATION FACTOR CALCULATION *****  Y  DIRECTION
                                                                                  CUMULATIVE     RATIO EFF.MASS
  MODE   FREQUENCY       PERIOD      PARTIC.FACTOR     RATIO    EFFECTIVE MASS   MASS FRACTION   TO TOTAL MASS
  IMAGINARY COMPONENT

     1     0.00000        0.0000        0.0000        0.000000     0.00000         0.00000         0.00000    
     2     25.0981       0.39844E-01  -0.33848E-04    1.000000    0.114567E-08    0.905001        0.443677E-06
     3     25.1897       0.39699E-01   0.10747E-04    0.317520    0.115506E-09    0.996243        0.447311E-07
     4     133.619       0.74840E-02   0.12836E-05    0.037923    0.164766E-11    0.997544        0.638081E-09
     5     166.198       0.60169E-02  -0.17632E-05    0.052091    0.310878E-11     1.00000        0.120392E-08
 -----------------------------------------------------------------------------------------------------------------
   sum                                                            0.126593E-08                    0.490250E-06
 -----------------------------------------------------------------------------------------------------------------



          ***** PARTICIPATION FACTOR CALCULATION *****  Z  DIRECTION
                                                                                  CUMULATIVE     RATIO EFF.MASS
  MODE   FREQUENCY       PERIOD      PARTIC.FACTOR     RATIO    EFFECTIVE MASS   MASS FRACTION   TO TOTAL MASS
  IMAGINARY COMPONENT

     1     0.00000        0.0000        0.0000        0.000000     0.00000         0.00000         0.00000    
     2     25.0981       0.39844E-01  -0.94231E-07    0.000325    0.887946E-14    0.105269E-06    0.343869E-11
     3     25.1897       0.39699E-01   0.30063E-07    0.000104    0.903795E-15    0.115984E-06    0.350007E-12
     4     133.619       0.74840E-02   0.99287E-05    0.034206    0.985795E-10    0.116881E-02    0.381763E-07
     5     166.198       0.60169E-02   0.29026E-03    1.000000    0.842513E-07     1.00000        0.326275E-04
 -----------------------------------------------------------------------------------------------------------------
   sum                                                            0.843499E-07                    0.326657E-04
 -----------------------------------------------------------------------------------------------------------------


 *** ANSYS BINARY FILE STATISTICS
  BUFFER SIZE USED= 16384
       18.188 MB WRITTEN ON ELEMENT MATRIX FILE: file0.emat
        0.438 MB WRITTEN ON ELEMENT SAVED DATA FILE: file0.esav
       11.500 MB WRITTEN ON ASSEMBLED MATRIX FILE: file0.full
        0.812 MB WRITTEN ON MODAL MATRIX FILE: file0.mode
        1.312 MB WRITTEN ON RESULTS FILE: file0.rst
 *************** Write FE CONNECTORS *********

 WRITE OUT CONSTRAINT EQUATIONS TO FILE= file.ce                                                                                                                                                                                                                                                             
 ---------------- Campbell diagram point 2 ----------------

 CMOMEGA on component= cm_rotvelcity51                 
  OMEGAX, OMEGAY, OMEGAZ=   0.0000      0.0000      100.00    
  X1, Y1, Z1=   0.0000      0.0000      0.0000    

 *****  ANSYS SOLVE    COMMAND  *****

 *** WARNING ***                         CP =       3.500   TIME= 18:00:29
 Material number 7 (used by element 461 ) should normally have at least  
 one MP or one TB type command associated with it.  Output of energy by  
 material may not be available.                                          

 *** NOTE ***                            CP =       3.500   TIME= 18:00:29
 The step data was checked and warning messages were found.              
  Please review output or errors file (                                  
 C:\Users\vinig\OneDrive\Ambiente de                                     
 Trabalho\Vinícius\TCC\Computacional\ANSYS\_ProjectScratch\Scr9BA0\file0 
 0.err ) for these warning messages.                                     

 *** ANSYS - ENGINEERING ANALYSIS SYSTEM  RELEASE Release 18.1     18.1     ***
 DISTRIBUTED ANSYS Mechanical Enterprise                       

 00000000  VERSION=WINDOWS x64   18:00:29  JUN 27, 2019 CP=      3.531

 simulacao_FE--Modal (A5)                                                      



                      L O A D   S T E P   O P T I O N S

   LOAD STEP NUMBER. . . . . . . . . . . . . . . .     2
   THERMAL STRAINS INCLUDED IN THE LOAD VECTOR . .   YES
   CORIOLIS EFFECT IN STATIONARY REF. FRAME  . . .    ON
   REUSE EIGENMODES FOR QRDAMP SOLVER. . . . . . .YES
   PRINT OUTPUT CONTROLS . . . . . . . . . . . . .NO PRINTOUT
   DATABASE OUTPUT CONTROLS
      ITEM     FREQUENCY   COMPONENT
       ALL       NONE               
      NSOL        ALL               
      MISC        ALL       _ELMISC 


 *** WARNING ***                         CP =       3.812   TIME= 18:00:29
 The file0.modesym file does exist and is being used for the QR damp     
 eigensolution since the ReuseKey is set to ON on the QRDOPT command.    
                                                                         
 Time at end of state-space matrix formulation CP = 3.84375.             

  ***** DAMPED FREQUENCIES FROM REDUCED DAMPED EIGENSOLVER *****

               COMPLEX FREQUENCY (HERTZ)
  MODE     STABILITY            FREQUENCY         MODAL DAMPING RATIO


    1      0.20545400E-03       0.0000000    j      N/A
    2       0.0000000           25.098128    j       0.0000000    
    3       0.0000000           25.189468    j       0.0000000    
    4       0.0000000           129.70194    j       0.0000000    
    5       0.0000000           171.39464    j       0.0000000    
                                                                         
 Time at end of eigenproblem resolution CP = 3.84375.                    
                                                                         
 Time at end of mode shape normalization CP = 3.84375.                   

 *** ANSYS - ENGINEERING ANALYSIS SYSTEM  RELEASE Release 18.1     18.1     ***
 DISTRIBUTED ANSYS Mechanical Enterprise                       

 00000000  VERSION=WINDOWS x64   18:00:30  JUN 27, 2019 CP=      4.219

 simulacao_FE--Modal (A5)                                                      





          ***** PARTICIPATION FACTOR CALCULATION *****  X  DIRECTION
                                                                                  CUMULATIVE     RATIO EFF.MASS
  MODE   FREQUENCY       PERIOD      PARTIC.FACTOR     RATIO    EFFECTIVE MASS   MASS FRACTION   TO TOTAL MASS
     1     0.00000        0.0000       0.12253E-02    0.025980    0.150131E-05    0.613969E-03    0.581404E-03
     2     25.0981       0.39844E-01   0.47163E-01    1.000000    0.222433E-02    0.910263        0.861401    
     3     25.1895       0.39699E-01   0.14813E-01    0.314083    0.219425E-03    0.999998        0.849755E-01
     4     129.702       0.77100E-02  -0.62177E-04    0.001318    0.386599E-08     1.00000        0.149716E-05
     5     171.395       0.58345E-02  -0.27976E-04    0.000593    0.782674E-09     1.00000        0.303101E-06
 -----------------------------------------------------------------------------------------------------------------
   sum                                                            0.244526E-02                    0.946960    
 -----------------------------------------------------------------------------------------------------------------



          ***** PARTICIPATION FACTOR CALCULATION *****  Y  DIRECTION
                                                                                  CUMULATIVE     RATIO EFF.MASS
  MODE   FREQUENCY       PERIOD      PARTIC.FACTOR     RATIO    EFFECTIVE MASS   MASS FRACTION   TO TOTAL MASS
     1     0.00000        0.0000       0.38733E-02    0.082403    0.150024E-04    0.613510E-02    0.580990E-02
     2     25.0981       0.39844E-01  -0.14863E-01    0.316211    0.220919E-03    0.964777E-01    0.855538E-01
     3     25.1895       0.39699E-01   0.47004E-01    1.000000    0.220942E-02    0.999997        0.855627    
     4     129.702       0.77100E-02  -0.82121E-04    0.001747    0.674387E-08     1.00000        0.261166E-05
     5     171.395       0.58345E-02   0.26258E-04    0.000559    0.689506E-09     1.00000        0.267021E-06
 -----------------------------------------------------------------------------------------------------------------
   sum                                                            0.244534E-02                    0.946994    
 -----------------------------------------------------------------------------------------------------------------



          ***** PARTICIPATION FACTOR CALCULATION *****  Z  DIRECTION
                                                                                  CUMULATIVE     RATIO EFF.MASS
  MODE   FREQUENCY       PERIOD      PARTIC.FACTOR     RATIO    EFFECTIVE MASS   MASS FRACTION   TO TOTAL MASS
     1     0.00000        0.0000      -0.15622E-02    0.256186    0.244056E-05    0.614580E-01    0.945140E-03
     2     25.0981       0.39844E-01   0.20338E-05    0.000334    0.413646E-11    0.614581E-01    0.160190E-08
     3     25.1895       0.39699E-01   0.14076E-03    0.023083    0.198132E-07    0.619570E-01    0.767294E-05
     4     129.702       0.77100E-02   0.60980E-02    1.000000    0.371860E-04    0.998371        0.144008E-01
     5     171.395       0.58345E-02   0.25434E-03    0.041709    0.646910E-07     1.00000        0.250525E-04
 -----------------------------------------------------------------------------------------------------------------
   sum                                                            0.397110E-04                    0.153787E-01
 -----------------------------------------------------------------------------------------------------------------

 *** ANSYS - ENGINEERING ANALYSIS SYSTEM  RELEASE Release 18.1     18.1     ***
 DISTRIBUTED ANSYS Mechanical Enterprise                       

 00000000  VERSION=WINDOWS x64   18:00:30  JUN 27, 2019 CP=      4.219

 simulacao_FE--Modal (A5)                                                      





          ***** PARTICIPATION FACTOR CALCULATION *****  X  DIRECTION
                                                                                  CUMULATIVE     RATIO EFF.MASS
  MODE   FREQUENCY       PERIOD      PARTIC.FACTOR     RATIO    EFFECTIVE MASS   MASS FRACTION   TO TOTAL MASS
  IMAGINARY COMPONENT

     1     0.00000        0.0000        0.0000        0.000000     0.00000         0.00000         0.00000    
     2     25.0981       0.39844E-01  -0.10690E-03    0.313304    0.114268E-07    0.891487E-01    0.442520E-05
     3     25.1895       0.39699E-01  -0.34119E-03    1.000000    0.116411E-06    0.997350        0.450817E-04
     4     129.702       0.77100E-02  -0.11132E-04    0.032627    0.123924E-09    0.998316        0.479915E-07
     5     171.395       0.58345E-02  -0.14690E-04    0.043054    0.215787E-09     1.00000        0.835665E-07
 -----------------------------------------------------------------------------------------------------------------
   sum                                                            0.128177E-06                    0.496384E-04
 -----------------------------------------------------------------------------------------------------------------



          ***** PARTICIPATION FACTOR CALCULATION *****  Y  DIRECTION
                                                                                  CUMULATIVE     RATIO EFF.MASS
  MODE   FREQUENCY       PERIOD      PARTIC.FACTOR     RATIO    EFFECTIVE MASS   MASS FRACTION   TO TOTAL MASS
  IMAGINARY COMPONENT

     1     0.00000        0.0000        0.0000        0.000000     0.00000         0.00000         0.00000    
     2     25.0981       0.39844E-01  -0.33916E-03    1.000000    0.115030E-06    0.906302        0.445471E-04
     3     25.1895       0.39699E-01   0.10769E-03    0.317518    0.115971E-07    0.997673        0.449112E-05
     4     129.702       0.77100E-02   0.11099E-04    0.032724    0.123183E-09    0.998644        0.477043E-07
     5     171.395       0.58345E-02  -0.13121E-04    0.038687    0.172168E-09     1.00000        0.666745E-07
 -----------------------------------------------------------------------------------------------------------------
   sum                                                            0.126923E-06                    0.491526E-04
 -----------------------------------------------------------------------------------------------------------------



          ***** PARTICIPATION FACTOR CALCULATION *****  Z  DIRECTION
                                                                                  CUMULATIVE     RATIO EFF.MASS
  MODE   FREQUENCY       PERIOD      PARTIC.FACTOR     RATIO    EFFECTIVE MASS   MASS FRACTION   TO TOTAL MASS
  IMAGINARY COMPONENT

     1     0.00000        0.0000        0.0000        0.000000     0.00000         0.00000         0.00000    
     2     25.0981       0.39844E-01  -0.94340E-06    0.000397    0.890005E-12    0.157792E-06    0.344667E-09
     3     25.1895       0.39699E-01   0.30023E-06    0.000126    0.901372E-13    0.173773E-06    0.349069E-10
     4     129.702       0.77100E-02   0.83189E-04    0.035049    0.692037E-08    0.122711E-02    0.268001E-05
     5     171.395       0.58345E-02   0.23735E-02    1.000000    0.563345E-05     1.00000        0.218163E-02
 -----------------------------------------------------------------------------------------------------------------
   sum                                                            0.564037E-05                    0.218431E-02
 -----------------------------------------------------------------------------------------------------------------
 ---------------- Campbell diagram point 3 ----------------

 CMOMEGA on component= cm_rotvelcity51                 
  OMEGAX, OMEGAY, OMEGAZ=   0.0000      0.0000      1000.0    
  X1, Y1, Z1=   0.0000      0.0000      0.0000    

 *****  ANSYS SOLVE    COMMAND  *****

 *** WARNING ***                         CP =       4.219   TIME= 18:00:30
 Material number 7 (used by element 461 ) should normally have at least  
 one MP or one TB type command associated with it.  Output of energy by  
 material may not be available.                                          

 *** NOTE ***                            CP =       4.219   TIME= 18:00:30
 The step data was checked and warning messages were found.              
  Please review output or errors file (                                  
 C:\Users\vinig\OneDrive\Ambiente de                                     
 Trabalho\Vinícius\TCC\Computacional\ANSYS\_ProjectScratch\Scr9BA0\file0 
 0.err ) for these warning messages.                                     

 *** ANSYS - ENGINEERING ANALYSIS SYSTEM  RELEASE Release 18.1     18.1     ***
 DISTRIBUTED ANSYS Mechanical Enterprise                       

 00000000  VERSION=WINDOWS x64   18:00:30  JUN 27, 2019 CP=      4.250

 simulacao_FE--Modal (A5)                                                      



                      L O A D   S T E P   O P T I O N S

   LOAD STEP NUMBER. . . . . . . . . . . . . . . .     3
   THERMAL STRAINS INCLUDED IN THE LOAD VECTOR . .   YES
   CORIOLIS EFFECT IN STATIONARY REF. FRAME  . . .    ON
   REUSE EIGENMODES FOR QRDAMP SOLVER. . . . . . .YES
   PRINT OUTPUT CONTROLS . . . . . . . . . . . . .NO PRINTOUT
   DATABASE OUTPUT CONTROLS
      ITEM     FREQUENCY   COMPONENT
       ALL       NONE               
      NSOL        ALL               
      MISC        ALL       _ELMISC 


 *** WARNING ***                         CP =       4.719   TIME= 18:00:30
 The file0.modesym file does exist and is being used for the QR damp     
 eigensolution since the ReuseKey is set to ON on the QRDOPT command.    
                                                                         
 Time at end of state-space matrix formulation CP = 4.859375.            

  ***** DAMPED FREQUENCIES FROM REDUCED DAMPED EIGENSOLVER *****

               COMPLEX FREQUENCY (HERTZ)
  MODE     STABILITY            FREQUENCY         MODAL DAMPING RATIO


    1      0.18716893E-03       0.0000000    j      N/A
    2       0.0000000           25.097560    j       0.0000000    
    3       0.0000000           25.171520    j       0.0000000    
    4       0.0000000           72.575786    j       0.0000000    
    5       0.0000000           336.47451    j       0.0000000    
                                                                         
 Time at end of eigenproblem resolution CP = 4.859375.                   
                                                                         
 Time at end of mode shape normalization CP = 5.140625.                  

 *** ANSYS - ENGINEERING ANALYSIS SYSTEM  RELEASE Release 18.1     18.1     ***
 DISTRIBUTED ANSYS Mechanical Enterprise                       

 00000000  VERSION=WINDOWS x64   18:00:32  JUN 27, 2019 CP=      5.406

 simulacao_FE--Modal (A5)                                                      





          ***** PARTICIPATION FACTOR CALCULATION *****  X  DIRECTION
                                                                                  CUMULATIVE     RATIO EFF.MASS
  MODE   FREQUENCY       PERIOD      PARTIC.FACTOR     RATIO    EFFECTIVE MASS   MASS FRACTION   TO TOTAL MASS
     1     0.00000        0.0000       0.12253E-02    0.026050    0.150131E-05    0.618574E-03    0.581404E-03
     2     25.0976       0.39845E-01   0.47036E-01    1.000000    0.221234E-02    0.912152        0.856759    
     3     25.1715       0.39727E-01   0.14600E-01    0.310409    0.213167E-03    0.999981        0.825520E-01
     4     72.5758       0.13779E-01  -0.21320E-03    0.004533    0.454530E-07     1.00000        0.176023E-04
     5     336.475       0.29720E-02  -0.16403E-04    0.000349    0.269052E-09     1.00000        0.104194E-06
 -----------------------------------------------------------------------------------------------------------------
   sum                                                            0.242705E-02                    0.939910    
 -----------------------------------------------------------------------------------------------------------------



          ***** PARTICIPATION FACTOR CALCULATION *****  Y  DIRECTION
                                                                                  CUMULATIVE     RATIO EFF.MASS
  MODE   FREQUENCY       PERIOD      PARTIC.FACTOR     RATIO    EFFECTIVE MASS   MASS FRACTION   TO TOTAL MASS
     1     0.00000        0.0000       0.38733E-02    0.082529    0.150024E-04    0.616860E-02    0.580990E-02
     2     25.0976       0.39845E-01  -0.14634E-01    0.311803    0.214147E-03    0.942202E-01    0.829315E-01
     3     25.1715       0.39727E-01   0.46933E-01    1.000000    0.220269E-02    0.999906        0.853021    
     4     72.5758       0.13779E-01  -0.47757E-03    0.010176    0.228069E-06     1.00000        0.883230E-04
     5     336.475       0.29720E-02   0.14508E-04    0.000309    0.210469E-09     1.00000        0.815071E-07
 -----------------------------------------------------------------------------------------------------------------
   sum                                                            0.243206E-02                    0.941851    
 -----------------------------------------------------------------------------------------------------------------



          ***** PARTICIPATION FACTOR CALCULATION *****  Z  DIRECTION
                                                                                  CUMULATIVE     RATIO EFF.MASS
  MODE   FREQUENCY       PERIOD      PARTIC.FACTOR     RATIO    EFFECTIVE MASS   MASS FRACTION   TO TOTAL MASS
     1     0.00000        0.0000      -0.15622E-02    0.409630    0.244056E-05    0.143212        0.945140E-03
     2     25.0976       0.39845E-01   0.25373E-05    0.000665    0.643796E-11    0.143213        0.249319E-08
     3     25.1715       0.39727E-01   0.12775E-03    0.033498    0.163208E-07    0.144170        0.632047E-05
     4     72.5758       0.13779E-01   0.38138E-02    1.000000    0.145447E-04    0.997659        0.563266E-02
     5     336.475       0.29720E-02   0.19973E-03    0.052370    0.398913E-07     1.00000        0.154485E-04
 -----------------------------------------------------------------------------------------------------------------
   sum                                                            0.170415E-04                    0.659957E-02
 -----------------------------------------------------------------------------------------------------------------

 *** ANSYS - ENGINEERING ANALYSIS SYSTEM  RELEASE Release 18.1     18.1     ***
 DISTRIBUTED ANSYS Mechanical Enterprise                       

 00000000  VERSION=WINDOWS x64   18:00:32  JUN 27, 2019 CP=      5.406

 simulacao_FE--Modal (A5)                                                      





          ***** PARTICIPATION FACTOR CALCULATION *****  X  DIRECTION
                                                                                  CUMULATIVE     RATIO EFF.MASS
  MODE   FREQUENCY       PERIOD      PARTIC.FACTOR     RATIO    EFFECTIVE MASS   MASS FRACTION   TO TOTAL MASS
  IMAGINARY COMPONENT

     1     0.00000        0.0000        0.0000        0.000000     0.00000         0.00000         0.00000    
     2     25.0976       0.39845E-01  -0.13041E-02    0.313401    0.170077E-05    0.894285E-01    0.658646E-03
     3     25.1715       0.39727E-01  -0.41612E-02    1.000000    0.173159E-04    0.999918        0.670581E-02
     4     72.5758       0.13779E-01  -0.36446E-04    0.008759    0.132833E-08    0.999988        0.514416E-06
     5     336.475       0.29720E-02  -0.15095E-04    0.003628    0.227869E-09     1.00000        0.882456E-07
 -----------------------------------------------------------------------------------------------------------------
   sum                                                            0.190182E-04                    0.736506E-02
 -----------------------------------------------------------------------------------------------------------------



          ***** PARTICIPATION FACTOR CALCULATION *****  Y  DIRECTION
                                                                                  CUMULATIVE     RATIO EFF.MASS
  MODE   FREQUENCY       PERIOD      PARTIC.FACTOR     RATIO    EFFECTIVE MASS   MASS FRACTION   TO TOTAL MASS
  IMAGINARY COMPONENT

     1     0.00000        0.0000        0.0000        0.000000     0.00000         0.00000         0.00000    
     2     25.0976       0.39845E-01  -0.41378E-02    1.000000    0.171211E-04    0.908423        0.663038E-02
     3     25.1715       0.39727E-01   0.13128E-02    0.317280    0.172353E-05    0.999871        0.667460E-03
     4     72.5758       0.13779E-01   0.49224E-04    0.011896    0.242302E-08    0.999999        0.938349E-06
     5     336.475       0.29720E-02  -0.35396E-05    0.000855    0.125291E-10     1.00000        0.485206E-08
 -----------------------------------------------------------------------------------------------------------------
   sum                                                            0.188470E-04                    0.729878E-02
 -----------------------------------------------------------------------------------------------------------------



          ***** PARTICIPATION FACTOR CALCULATION *****  Z  DIRECTION
                                                                                  CUMULATIVE     RATIO EFF.MASS
  MODE   FREQUENCY       PERIOD      PARTIC.FACTOR     RATIO    EFFECTIVE MASS   MASS FRACTION   TO TOTAL MASS
  IMAGINARY COMPONENT

     1     0.00000        0.0000        0.0000        0.000000     0.00000         0.00000         0.00000    
     2     25.0976       0.39845E-01  -0.10613E-04    0.002343    0.112641E-09    0.548441E-05    0.436220E-07
     3     25.1715       0.39727E-01   0.26355E-05    0.000582    0.694565E-11    0.582259E-05    0.268980E-08
     4     72.5758       0.13779E-01   0.15645E-03    0.034541    0.244753E-07    0.119750E-02    0.947841E-05
     5     336.475       0.29720E-02   0.45292E-02    1.000000    0.205139E-04     1.00000        0.794429E-02
 -----------------------------------------------------------------------------------------------------------------
   sum                                                            0.205385E-04                    0.795382E-02
 -----------------------------------------------------------------------------------------------------------------

 *GET  _NMODALSOLPROC  FROM  ACTI  ITEM=NUMC       VALUE=  2.00000000    

 FINISH SOLUTION PROCESSING


 ***** ROUTINE COMPLETED *****  CP =         5.609



 PRINTOUT RESUMED BY /GOP

 *GET  _WALLASOL  FROM  ACTI  ITEM=TIME WALL  VALUE=  18.0091667    

 *** ANSYS - ENGINEERING ANALYSIS SYSTEM  RELEASE Release 18.1     18.1     ***
 DISTRIBUTED ANSYS Mechanical Enterprise                       

 00000000  VERSION=WINDOWS x64   18:00:33  JUN 27, 2019 CP=      5.641

 simulacao_FE--Modal (A5)                                                      



          ***** ANSYS RESULTS INTERPRETATION (POST1) *****

 *** NOTE ***                            CP =       5.656   TIME= 18:00:33
 The model contains an element type ( COMBI214 ) that operates entirely  
 in the nodal coordinate system.  Viewing nodal displacements or forces  
 in other than the nodal coordinate system may be invalid.  See the      
 elements manual description for more information.                       

 *** NOTE ***                            CP =       5.656   TIME= 18:00:33
 Reading results into the database (SET command) will update the current 
 displacement and force boundary conditions in the database with the     
 values from the results file for that load set.  Note that any          
 subsequent solutions will use these values unless action is taken to    
 either SAVE the current values or not overwrite them (/EXIT,NOSAVE).    


 PRINT CAMPBELL DIAGRAM
    Sorting : ON
    X axis unit : rd/s
    Driving component : CM_ROTVELCITY51                 
    Printout all frequencies

 *** WARNING ***                         CP =       6.000   TIME= 18:00:33
 Sorting process may not be successful due to the shape of some modes.   
 If results are not satisfactory, try to change the load steps and/or    
 the number of modes.                                                    

 *** WARNING ***                         CP =       6.000   TIME= 18:00:33
 At least one of the frequencies is unstable.  Instability check is made 
 on real part of eigenvalue.  If damping is very small, re-running the   
 model using another eigensolver is strongly recommended to              
 double-check the instability prediction.                                



     ***** FREQUENCIES (Hz) FROM CAMPBELL (sorting on) *****
    ** The driving component is CM_ROTVELCITY51                  **

 Unstable frequencies are identified with letter u


 Spin(rd/s)         10.000        100.000       1000.000

     1 u             0.000          0.000          0.000
     2   BW         25.098         25.098         25.098
     3   FW         25.190         25.189         25.172
     4   BW        133.619        129.702         72.576
     5   FW        166.198        171.395        336.475


 PRINT CAMPBELL DIAGRAM
    Sorting : ON
    X axis unit : rd/s
    Driving component : CM_ROTVELCITY51                 
    Stability value : ON
    Printout all frequencies

 *** WARNING ***                         CP =       6.000   TIME= 18:00:33
 Sorting process may not be successful due to the shape of some modes.   
 If results are not satisfactory, try to change the load steps and/or    
 the number of modes.                                                    

 *** WARNING ***                         CP =       6.000   TIME= 18:00:33
 At least one of the frequencies is unstable.  Instability check is made 
 on real part of eigenvalue.  If damping is very small, re-running the   
 model using another eigensolver is strongly recommended to              
 double-check the instability prediction.                                



     ***** STABILITY VALUES (Hz) FROM CAMPBELL (sorting on) *****
    ** The driving component is CM_ROTVELCITY51                  **

 Unstable frequencies are identified with letter u


 Spin(rd/s)         10.000        100.000       1000.000

     1 u             0.000          0.000          0.000
     2   BW          0.000          0.000          0.000
     3   FW          0.000          0.000          0.000
     4   BW          0.000          0.000          0.000
     5   FW          0.000          0.000          0.000

 PRINTOUT RESUMED BY /GOP

 PRINTOUT RESUMED BY /GOP

 Set Encoding of XML File to:ISO-8859-1

 Set Output of XML File to:
     PARM,     ,     ,     ,     ,     ,     ,     ,     ,     ,     ,     ,
         ,     ,     ,     ,     ,     ,     ,

 DATABASE WRITTEN ON FILE  parm.xml                                                                                                                                                                                                                                                            

 EXIT THE ANSYS POST1 DATABASE PROCESSOR


 ***** ROUTINE COMPLETED *****  CP =         6.031



 PRINTOUT RESUMED BY /GOP

 *GET  _WALLDONE  FROM  ACTI  ITEM=TIME WALL  VALUE=  18.0094444    

 PARAMETER _PREPTIME =     2.000000000    

 PARAMETER _SOLVTIME =     17.00000000    

 PARAMETER _POSTTIME =     1.000000000    

 PARAMETER _TOTALTIM =     20.00000000    

 EXIT ANSYS WITHOUT SAVING DATABASE


 NUMBER OF WARNING MESSAGES ENCOUNTERED=         14
 NUMBER OF ERROR   MESSAGES ENCOUNTERED=          0

+--------- D I S T R I B U T E D   A N S Y S   S T A T I S T I C S ------------+

Release: Release 18.1       Build: 18.1       Update: UP20170403   Platform: WINDOWS x64 
Date Run: 06/27/2019   Time: 18:00     Process ID: 9528
Operating System: Windows 10  (Build: 17134)

Processor Model: Intel(R) Core(TM) i7-7500U CPU @ 2.70GHz

Compiler: Intel(R) FORTRAN Compiler Version 15.0.7  (Build: 20160518)
          Intel(R) C/C++ Compiler Version 15.0.7  (Build: 20160518)
          Intel(R) Math Kernel Library Version 11.3.3 Product Build 20160413

Number of machines requested            :    1
Total number of cores available         :    4
Number of physical cores available      :    2
Number of processes requested           :    2
Number of threads per process requested :    1
Total number of cores requested         :    2 (Distributed Memory Parallel)               
MPI Type: INTELMPI
MPI Version: Intel(R) MPI Library 5.1.3 for Windows* OS


GPU Acceleration: Not Requested

Job Name: file0
Input File: dummy.dat

  Core                Machine Name   Working Directory
  ----------------------------------------------------
     0             LAPTOP-C4CLIDF2   C:\Users\vinig\OneDrive\Ambiente de Trabalho\Vinícius\TCC\Computacional\ANSYS\_ProjectScratch\Scr9BA0
     1             LAPTOP-C4CLIDF2   C:\Users\vinig\OneDrive\Ambiente de Trabalho\Vinícius\TCC\Computacional\ANSYS\_ProjectScratch\Scr9BA0
 
Latency time from master to core    1 =    1.447 microseconds
 
Communication speed from master to core    1 =  4113.39 MB/sec

Total CPU time for main thread                    :        3.2 seconds
Total CPU time summed for all threads             :        6.0 seconds

Elapsed time spent pre-processing model (/PREP7)  :        2.4 seconds
Elapsed time spent solution - preprocessing       :        1.5 seconds
Elapsed time spent computing solution             :       13.0 seconds
Elapsed time spent solution - postprocessing      :        1.0 seconds
Elapsed time spent post-processing model (/POST1) :        0.9 seconds
 
Eigensolver used                                  :            QRdamp
Equation solver computational rate                :      714.3 Mflops

Maximum total memory used                         :      285.0 MB
Maximum total memory allocated                    :     3136.0 MB
Total physical memory available                   :          8 GB

+------ E N D   D I S T R I B U T E D   A N S Y S   S T A T I S T I C S -------+


 *---------------------------------------------------------------------------*
 |                                                                           |
 |                       DISTRIBUTED ANSYS RUN COMPLETED                     |
 |                                                                           |
 |---------------------------------------------------------------------------|
 |                                                                           |
 | Ansys Release 18.1          Build 18.1         UP20170403     WINDOWS x64 |
 |                                                                           |
 |---------------------------------------------------------------------------|
 |                                                                           |
 | Database Requested(-db)  1024 MB    Scratch Memory Requested      1024 MB |
 | Maximum Database Used       2 MB    Maximum Scratch Memory Used    145 MB |
 |                                                                           |
 |---------------------------------------------------------------------------|
 |                                                                           |
 |        CP Time      (sec) =          6.031       Time  =  18:00:36        |
 |        Elapsed Time (sec) =         26.000       Date  =  06/27/2019      |
 |                                                                           |
 *---------------------------------------------------------------------------*
