
 ANSYS Mechanical Enterprise Academic Student      


 *------------------------------------------------------------------*
 |                                                                  |
 |   W E L C O M E   T O   T H E   A N S Y S (R)  P R O G R A M     |
 |                                                                  |
 *------------------------------------------------------------------*




 ***************************************************************
 *            ANSYS 2021 R1          LEGAL NOTICES             *
 ***************************************************************
 *                                                             *
 * Copyright 1971-2021 ANSYS, Inc.  All rights reserved.       *
 * Unauthorized use, distribution or duplication is            *
 * prohibited.                                                 *
 *                                                             *
 * Ansys is a registered trademark of ANSYS, Inc. or its       *
 * subsidiaries in the United States or other countries.       *
 * See the ANSYS, Inc. online documentation or the ANSYS, Inc. *
 * documentation CD or online help for the complete Legal      *
 * Notice.                                                     *
 *                                                             *
 ***************************************************************
 *                                                             *
 * THIS ANSYS SOFTWARE PRODUCT AND PROGRAM DOCUMENTATION       *
 * INCLUDE TRADE SECRETS AND CONFIDENTIAL AND PROPRIETARY      *
 * PRODUCTS OF ANSYS, INC., ITS SUBSIDIARIES, OR LICENSORS.    *
 * The software products and documentation are furnished by    *
 * ANSYS, Inc. or its subsidiaries under a software license    *
 * agreement that contains provisions concerning               *
 * non-disclosure, copying, length and nature of use,          *
 * compliance with exporting laws, warranties, disclaimers,    *
 * limitations of liability, and remedies, and other           *
 * provisions.  The software products and documentation may be *
 * used, disclosed, transferred, or copied only in accordance  *
 * with the terms and conditions of that software license      *
 * agreement.                                                  *
 *                                                             *
 * ANSYS, Inc. is a UL registered                              *
 * ISO 9001:2015 company.                                      *
 *                                                             *
 ***************************************************************
 *                                                             *
 * This product is subject to U.S. laws governing export and   *
 * re-export.                                                  *
 *                                                             *
 * For U.S. Government users, except as specifically granted   *
 * by the ANSYS, Inc. software license agreement, the use,     *
 * duplication, or disclosure by the United States Government  *
 * is subject to restrictions stated in the ANSYS, Inc.        *
 * software license agreement and FAR 12.212 (for non-DOD      *
 * licenses).                                                  *
 *                                                             *
 ***************************************************************

 2021 R1 
     
 Point Releases and Patches installed:   
     
 Academic Student 2021 R1
 Aqwa 2021 R1
 EnSight 2021 R1 
 FENSAP-ICE 2021 R1  


          *****  ANSYS COMMAND LINE ARGUMENTS  *****
  BATCH MODE REQUESTED (-b)    = NOLIST
  INPUT FILE COPY MODE (-c)    = COPY
  DISTRIBUTED MEMORY PARALLEL REQUESTED
       2 PARALLEL PROCESSES REQUESTED WITH SINGLE THREAD PER PROCESS
    TOTAL OF     2 CORES REQUESTED
  INPUT FILE NAME              = C:\Users\vinig\Desktop\codes\TCC-assets\programas\ansys-bearing\_ProjectScratch\Scr4CB0\dummy.dat
  OUTPUT FILE NAME             = C:\Users\vinig\Desktop\codes\TCC-assets\programas\ansys-bearing\_ProjectScratch\Scr4CB0\solve.out
  START-UP FILE MODE           = NOREAD
  STOP FILE MODE               = NOREAD

 RELEASE= 2021 R1              BUILD= 21.1      UP20201109   VERSION=WINDOWS x64 
 CURRENT JOBNAME=file0  18:31:24  MAR 04, 2021 CP=      0.234


 PARAMETER _DS_PROGRESS =     999.0000000    

 /INPUT FILE= ds.dat  LINE=       0



 *** NOTE ***                            CP =       0.328   TIME= 18:31:24
 The /CONFIG,NOELDB command is not valid in a Distributed ANSYS          
 solution.  Command is ignored.                                          

 *GET  _WALLSTRT  FROM  ACTI  ITEM=TIME WALL  VALUE=  18.5233333    

 TITLE= 
 bearing-stiffness--Static Structural (A5)                                     

  ACT Extensions:
      LSDYNA, 2021.1
      5f463412-bd3e-484b-87e7-cbc0a665e474, wbex
  

 SET PARAMETER DIMENSIONS ON  _WB_PROJECTSCRATCH_DIR
  TYPE=STRI  DIMENSIONS=      248        1        1

 PARAMETER _WB_PROJECTSCRATCH_DIR(1) = C:\Users\vinig\Desktop\codes\TCC-assets\programas\ansys-bearing\_ProjectScratch\Scr4CB0\

 SET PARAMETER DIMENSIONS ON  _WB_SOLVERFILES_DIR
  TYPE=STRI  DIMENSIONS=      248        1        1

 PARAMETER _WB_SOLVERFILES_DIR(1) = C:\Users\vinig\Desktop\codes\TCC-assets\programas\ansys-bearing\bearing-stiffness_files\dp0\SYS\MECH\

 SET PARAMETER DIMENSIONS ON  _WB_USERFILES_DIR
  TYPE=STRI  DIMENSIONS=      248        1        1

 PARAMETER _WB_USERFILES_DIR(1) = C:\Users\vinig\Desktop\codes\TCC-assets\programas\ansys-bearing\bearing-stiffness_files\user_files\
 --- Data in consistent MKS units. See Solving Units in the help system for more

 MKS UNITS SPECIFIED FOR INTERNAL    
  LENGTH        (l)  = METER (M)
  MASS          (M)  = KILOGRAM (KG)
  TIME          (t)  = SECOND (SEC)
  TEMPERATURE   (T)  = CELSIUS (C)
  TOFFSET            = 273.0
  CHARGE        (Q)  = COULOMB
  FORCE         (f)  = NEWTON (N) (KG-M/SEC2)
  HEAT               = JOULE (N-M)

  PRESSURE           = PASCAL (NEWTON/M**2)
  ENERGY        (W)  = JOULE (N-M)
  POWER         (P)  = WATT (N-M/SEC)
  CURRENT       (i)  = AMPERE (COULOMBS/SEC)
  CAPACITANCE   (C)  = FARAD
  INDUCTANCE    (L)  = HENRY
  MAGNETIC FLUX      = WEBER
  RESISTANCE    (R)  = OHM
  ELECTRIC POTENTIAL = VOLT

 INPUT  UNITS ARE ALSO SET TO MKS 

 *** ANSYS - ENGINEERING ANALYSIS SYSTEM  RELEASE 2021 R1          21.1     ***
 DISTRIBUTED ANSYS Mechanical Enterprise Academic Student      

 00000000  VERSION=WINDOWS x64   18:31:24  MAR 04, 2021 CP=      0.328

 bearing-stiffness--Static Structural (A5)                                     



          ***** ANSYS ANALYSIS DEFINITION (PREP7) *****
 *********** Nodes for the whole assembly ***********
 *********** Elements for Body 1 "_6201-2Z_PART1|_6201-2Z_PART1" ***********
 *********** Elements for Body 2 "_6201-2Z_PART2|_6201-2Z_PART2" ***********
 *********** Elements for Body 3 "_6201-2Z_PART3|_6201-2Z_PART3" ***********
 *********** Elements for Body 4 "_6201-2Z_PART3|_6201-2Z_PART3[2]" ***********
 *********** Elements for Body 5 "_6201-2Z_PART3|_6201-2Z_PART3[3]" ***********
 *********** Elements for Body 6 "_6201-2Z_PART3|_6201-2Z_PART3[4]" ***********
 *********** Elements for Body 7 "_6201-2Z_PART3|_6201-2Z_PART3[5]" ***********
 *********** Elements for Body 8 "_6201-2Z_PART3|_6201-2Z_PART3[6]" ***********
 *********** Elements for Body 9 "_6201-2Z_PART3|_6201-2Z_PART3[7]" ***********
 *********** Send User Defined Coordinate System(s) ***********
 *********** Set Reference Temperature ***********
 *********** Send Materials ***********
 *********** Create Contact "Contact Region" ***********
             Real Constant Set For Above Contact Is 11 & 10
 *********** Create Contact "Contact Region 2" ***********
             Real Constant Set For Above Contact Is 13 & 12
 *********** Create Contact "Contact Region 3" ***********
             Real Constant Set For Above Contact Is 15 & 14
 *********** Create Contact "Contact Region 4" ***********
             Real Constant Set For Above Contact Is 17 & 16
 *********** Create Contact "Contact Region 5" ***********
             Real Constant Set For Above Contact Is 19 & 18
 *********** Create Contact "Contact Region 6" ***********
             Real Constant Set For Above Contact Is 21 & 20
 *********** Create Contact "Contact Region 7" ***********
             Real Constant Set For Above Contact Is 23 & 22
 *********** Create Contact "Contact Region 8" ***********
             Real Constant Set For Above Contact Is 25 & 24
 *********** Create Contact "Contact Region 9" ***********
             Real Constant Set For Above Contact Is 27 & 26
 *********** Create Contact "Contact Region 10" ***********
             Real Constant Set For Above Contact Is 29 & 28
 *********** Create Contact "Contact Region 11" ***********
             Real Constant Set For Above Contact Is 31 & 30
 *********** Create Contact "Contact Region 12" ***********
             Real Constant Set For Above Contact Is 33 & 32
 *********** Create Contact "Contact Region 13" ***********
             Real Constant Set For Above Contact Is 35 & 34
 *********** Create Contact "Contact Region 14" ***********
             Real Constant Set For Above Contact Is 37 & 36
 *********** Fixed Supports ***********
 *********** Create Bearing Load ***********


 ***** ROUTINE COMPLETED *****  CP =         0.766


 --- Number of total nodes = 30547
 --- Number of contact elements = 2380
 --- Number of spring elements = 0
 --- Number of bearing elements = 0
 --- Number of solid elements = 15059
 --- Number of condensed parts = 0
 --- Number of total elements = 17439

 *GET  _WALLBSOL  FROM  ACTI  ITEM=TIME WALL  VALUE=  18.5233333    
 ****************************************************************************
 *************************    SOLUTION       ********************************
 ****************************************************************************

 *****  ANSYS SOLUTION ROUTINE  *****


 PERFORM A STATIC ANALYSIS
  THIS WILL BE A NEW ANALYSIS

 PARAMETER _THICKRATIO =    0.8890000000    

 USE PRECONDITIONED CONJUGATE GRADIENT SOLVER
  CONVERGENCE TOLERANCE = 1.00000E-08
  MAXIMUM ITERATION     = NumNode*DofPerNode*  1.0000    

 CONTACT INFORMATION PRINTOUT LEVEL       1

 DO NOT COMBINE ELEMENT MATRIX FILES (.emat) AFTER DISTRIBUTED PARALLEL SOLUTION

 DO NOT COMBINE ELEMENT SAVE DATA FILES (.esav) AFTER DISTRIBUTED PARALLEL SOLUTION

 NLDIAG: Nonlinear diagnostics CONT option is set to ON. 
         Writing frequency : each ITERATION.

 DO NOT SAVE ANY RESTART FILES AT ALL
 ****************************************************
 ******************* SOLVE FOR LS 1 OF 1 ****************

 SELECT       FOR ITEM=TYPE COMPONENT=    
  IN RANGE        38 TO         38 STEP          1

        270  ELEMENTS (OF      17439  DEFINED) SELECTED BY  ESEL  COMMAND.

 SPECIFIED SURFACE LOAD PRES FOR ALL SELECTED ELEMENTS  LKEY =  5   KVAL = 1
     VALUES =     0.0000         1.0000         0.0000         0.0000    

 COORDINATE SYSTEM         11 DEFINITION.  TYPE= 0  (CARTESIAN)  
   XC,YC,ZC=  0.0000      0.0000      0.0000    
   ANGLES=  -90.00    0.00    0.00   PARAMETERS=   1.000   1.000
   ORIENTATION=  0.00 -1.00  0.00   1.00  0.00  0.00   0.00  0.00  1.00

 ACTIVE COORDINATE SYSTEM SET TO        11  (CARTESIAN)  

 ACTIVE COORDINATE SYSTEM SET TO          0  (CARTESIAN)  

 PARAMETER _V1 =     0.000000000    

 PARAMETER _V2 =    -1.000000000    

 PARAMETER _V3 =     0.000000000    

 *GET  _NECURR   FROM  ELEM  ITEM=COUN           VALUE=  270.000000    

 PARAMETER _ECURR =     0.000000000    

 PARAMETER _TOTAL =     0.000000000    

 *DO LOOP ON PARAMETER= _I FROM  1.0000     TO  270.00     BY  1.0000    

 PARAMETER _ECURR =     26828.00000    

 PARAMETER _NORMX =   -0.8572178025E-01

 PARAMETER _NORMY =    0.1730089983    

 PARAMETER _NORMZ =    0.9811827877    

 PARAMETER _NORMMAG =     1.000000000    

 PARAMETER _NORMX =   -0.8572178025E-01

 PARAMETER _NORMY =    0.1730089983    

 PARAMETER _NORMZ =    0.9811827877    

 PARAMETER _DOT =   -0.1730089983    

 *IF  _dot                              ( = -0.173009     )  GT  
      -.00001                           ( = -0.100000E-04 )  THEN    

 *ELSE

 ACTIVE COORDINATE SYSTEM SET TO         11  (CARTESIAN)  

 *GET  _INDD     FROM  ELEM     26828  ITEM=APRO X         VALUE= 0.191677992E-06

 ACTIVE COORDINATE SYSTEM SET TO          0  (CARTESIAN)  

 PARAMETER _TOTAL =    0.1916779924E-06

 *ENDIF

 *ENDDO  INDEX= _I                              

 *GET  _NECURR   FROM  ELEM  ITEM=COUN           VALUE=  131.000000    

 *IF  _necurr                           ( =   131.000     )  EQ  
      0                                 ( =   0.00000     )  THEN    

 *ENDIF

 PARAMETER _MAG =     1000.000000    

 PARAMETER _MAG =     9530682.092    

 SPECIFIED SURFACE LOAD PRES FOR ALL SELECTED ELEMENTS  LKEY =  5   KVAL = 1
     VALUES =    0.95307E+07     0.0000        -1000.0         0.0000    

 ALL SELECT   FOR ITEM=NODE COMPONENT=    
  IN RANGE         1 TO      30547 STEP          1

      30547  NODES (OF      30547  DEFINED) SELECTED BY NSEL  COMMAND.

 ALL SELECT   FOR ITEM=ELEM COMPONENT=    
  IN RANGE         1 TO      27097 STEP          1

      17439  ELEMENTS (OF      17439  DEFINED) SELECTED BY  ESEL  COMMAND.

 PRINTOUT RESUMED BY /GOP

 USE       1 SUBSTEPS INITIALLY THIS LOAD STEP FOR ALL  DEGREES OF FREEDOM
 FOR AUTOMATIC TIME STEPPING:
   USE      1 SUBSTEPS AS A MAXIMUM
   USE      1 SUBSTEPS AS A MINIMUM

 TIME=  1.0000    

 ERASE THE CURRENT DATABASE OUTPUT CONTROL TABLE.


 WRITE ALL  ITEMS TO THE DATABASE WITH A FREQUENCY OF NONE
   FOR ALL APPLICABLE ENTITIES

 WRITE NSOL ITEMS TO THE DATABASE WITH A FREQUENCY OF ALL 
   FOR ALL APPLICABLE ENTITIES

 WRITE RSOL ITEMS TO THE DATABASE WITH A FREQUENCY OF ALL 
   FOR ALL APPLICABLE ENTITIES

 WRITE EANG ITEMS TO THE DATABASE WITH A FREQUENCY OF ALL 
   FOR ALL APPLICABLE ENTITIES

 WRITE ETMP ITEMS TO THE DATABASE WITH A FREQUENCY OF ALL 
   FOR ALL APPLICABLE ENTITIES

 WRITE VENG ITEMS TO THE DATABASE WITH A FREQUENCY OF ALL 
   FOR ALL APPLICABLE ENTITIES

 WRITE STRS ITEMS TO THE DATABASE WITH A FREQUENCY OF ALL 
   FOR ALL APPLICABLE ENTITIES

 WRITE EPEL ITEMS TO THE DATABASE WITH A FREQUENCY OF ALL 
   FOR ALL APPLICABLE ENTITIES

 WRITE EPPL ITEMS TO THE DATABASE WITH A FREQUENCY OF ALL 
   FOR ALL APPLICABLE ENTITIES

 WRITE CONT ITEMS TO THE DATABASE WITH A FREQUENCY OF ALL 
   FOR ALL APPLICABLE ENTITIES

 *GET  ANSINTER_  FROM  ACTI  ITEM=INT        VALUE=  0.00000000    

 *IF  ANSINTER_                         ( =   0.00000     )  NE  
      0                                 ( =   0.00000     )  THEN    

 *ENDIF

 *** NOTE ***                            CP =       0.922   TIME= 18:31:24
 The automatic domain decomposition logic has selected the MESH domain   
 decomposition method with 2 processes per solution.                     

 *****  ANSYS SOLVE    COMMAND  *****

 *** WARNING ***                         CP =       0.953   TIME= 18:31:24
 Element shape checking is currently inactive.  Issue SHPP,ON or         
 SHPP,WARN to reactivate, if desired.                                    

 *** NOTE ***                            CP =       1.094   TIME= 18:31:24
 The model data was checked and warning messages were found.             
  Please review output or errors file (                                  
 C:\Users\vinig\Desktop\codes\TCC-assets\programas\ansys-bearing\_Projec 
 ctScratch\Scr4CB0\file0.err ) for these warning messages.               

 *** SELECTION OF ELEMENT TECHNOLOGIES FOR APPLICABLE ELEMENTS ***
      --- GIVE SUGGESTIONS AND RESET THE KEY OPTIONS ---

 ELEMENT TYPE         1 IS SOLID187. IT IS NOT ASSOCIATED WITH FULLY INCOMPRESSIBLE
 HYPERELASTIC MATERIALS. NO SUGGESTION IS AVAILABLE AND NO RESETTING IS NEEDED.

 ELEMENT TYPE         2 IS SOLID187. IT IS NOT ASSOCIATED WITH FULLY INCOMPRESSIBLE
 HYPERELASTIC MATERIALS. NO SUGGESTION IS AVAILABLE AND NO RESETTING IS NEEDED.

 ELEMENT TYPE         3 IS SOLID187. IT IS NOT ASSOCIATED WITH FULLY INCOMPRESSIBLE
 HYPERELASTIC MATERIALS. NO SUGGESTION IS AVAILABLE AND NO RESETTING IS NEEDED.

 ELEMENT TYPE         4 IS SOLID187. IT IS NOT ASSOCIATED WITH FULLY INCOMPRESSIBLE
 HYPERELASTIC MATERIALS. NO SUGGESTION IS AVAILABLE AND NO RESETTING IS NEEDED.

 ELEMENT TYPE         5 IS SOLID187. IT IS NOT ASSOCIATED WITH FULLY INCOMPRESSIBLE
 HYPERELASTIC MATERIALS. NO SUGGESTION IS AVAILABLE AND NO RESETTING IS NEEDED.

 ELEMENT TYPE         6 IS SOLID187. IT IS NOT ASSOCIATED WITH FULLY INCOMPRESSIBLE
 HYPERELASTIC MATERIALS. NO SUGGESTION IS AVAILABLE AND NO RESETTING IS NEEDED.

 ELEMENT TYPE         7 IS SOLID187. IT IS NOT ASSOCIATED WITH FULLY INCOMPRESSIBLE
 HYPERELASTIC MATERIALS. NO SUGGESTION IS AVAILABLE AND NO RESETTING IS NEEDED.

 ELEMENT TYPE         8 IS SOLID187. IT IS NOT ASSOCIATED WITH FULLY INCOMPRESSIBLE
 HYPERELASTIC MATERIALS. NO SUGGESTION IS AVAILABLE AND NO RESETTING IS NEEDED.

 ELEMENT TYPE         9 IS SOLID187. IT IS NOT ASSOCIATED WITH FULLY INCOMPRESSIBLE
 HYPERELASTIC MATERIALS. NO SUGGESTION IS AVAILABLE AND NO RESETTING IS NEEDED.



 *** ANSYS - ENGINEERING ANALYSIS SYSTEM  RELEASE 2021 R1          21.1     ***
 DISTRIBUTED ANSYS Mechanical Enterprise Academic Student      

 00000000  VERSION=WINDOWS x64   18:31:24  MAR 04, 2021 CP=      1.094

 bearing-stiffness--Static Structural (A5)                                     



                       S O L U T I O N   O P T I O N S

   PROBLEM DIMENSIONALITY. . . . . . . . . . . . .3-D                  
   DEGREES OF FREEDOM. . . . . . UX   UY   UZ  
   ANALYSIS TYPE . . . . . . . . . . . . . . . . .STATIC (STEADY-STATE)
   OFFSET TEMPERATURE FROM ABSOLUTE ZERO . . . . .  273.15    
   EQUATION SOLVER OPTION. . . . . . . . . . . . .PCG                
      TOLERANCE. . . . . . . . . . . . . . . . . . 1.00000E-08
   GLOBALLY ASSEMBLED MATRIX . . . . . . . . . . .SYMMETRIC  

 *** WARNING ***                         CP =       1.141   TIME= 18:31:24
 Material number 38 (used by element 26828) should normally have at      
 least one MP or one TB type command associated with it.  Output of      
 energy by material may not be available.                                

 *** NOTE ***                            CP =       1.141   TIME= 18:31:24
 The step data was checked and warning messages were found.              
  Please review output or errors file (                                  
 C:\Users\vinig\Desktop\codes\TCC-assets\programas\ansys-bearing\_Projec 
 ctScratch\Scr4CB0\file0.err ) for these warning messages.               

 *** NOTE ***                            CP =       1.141   TIME= 18:31:24
 The conditions for direct assembly have been met.  No .emat or .erot    
 files will be produced.                                                 

 *** NOTE ***                            CP =       1.312   TIME= 18:31:24
 Symmetric Deformable- deformable contact pair identified by real        
 constant set 10 and contact element type 10 has been set up.  The       
 companion pair has real constant set ID 11.  Both pairs should have     
 the same behavior.                                                      
 ANSYS will keep the current pair and deactivate its companion pair,     
 resulting in asymmetric contact.                                        
 Linear contact is defined
 Contact algorithm: Augmented Lagrange method
 Contact detection at: Gauss integration point
 Contact stiffness factor FKN                  10.000    
 The resulting initial contact stiffness      0.30735E+17
 Default penetration tolerance factor FTOLN   0.10000    
 The resulting penetration tolerance          0.12108E-03
 Default opening contact stiffness OPSF will be used.
 Default tangent stiffness factor FKT          1.0000    
 Use constant contact stiffness
 Default Max. friction stress TAUMAX          0.10000E+21
 Average contact surface length               0.16372E-02
 Average contact pair depth                   0.12108E-02
 Default pinball region factor PINB           0.25000    
 *WARNING*: The default pinball radius may be too small to capture       
 contacting zone under small sliding assumption.  Redefine the pinball   
 radius if necessary.                                                    
 The resulting pinball region                 0.30271E-03
 Initial penetration/gap is excluded.
 Bonded contact (always) is defined.

 *** NOTE ***                            CP =       1.312   TIME= 18:31:24
 Max.  Initial penetration 8.690631644E-07 was detected between contact  
 element 24761 and target element 24838.                                 
 You may move entire target surface by : x= 6.34196836E-07, y=           
 5.941928617E-07, z= -9.146321085E-22,to reduce initial penetration.     
  
 Max.  Geometric gap 2.846038564E-04 has been detected between contact   
 element 24771 and target element 24866.                                 
 *WARNING*: The geometric gap/penetration may be too large.  Increase    
 pinball radius if it is a true geometric gap/penetration.  Decrease     
 pinball if it is a false one.                                           
 ****************************************
  

 *** NOTE ***                            CP =       1.312   TIME= 18:31:24
 Symmetric Deformable- deformable contact pair identified by real        
 constant set 11 and contact element type 10 has been set up.  The       
 companion pair has real constant set ID 10.  Both pairs should have     
 the same behavior.                                                      
 ANSYS will deactivate the current pair and keep its companion pair,     
 resulting in asymmetric contact.                                        
 Linear contact is defined
 Contact algorithm: Augmented Lagrange method
 Contact detection at: Gauss integration point
 Contact stiffness factor FKN                  10.000    
 The resulting initial contact stiffness      0.30735E+17
 Default penetration tolerance factor FTOLN   0.10000    
 The resulting penetration tolerance          0.13014E-03
 Default opening contact stiffness OPSF will be used.
 Default tangent stiffness factor FKT          1.0000    
 Use constant contact stiffness
 Default Max. friction stress TAUMAX          0.10000E+21
 Average contact surface length               0.14248E-02
 Average contact pair depth                   0.13014E-02
 Default pinball region factor PINB           0.25000    
 *WARNING*: The default pinball radius may be too small to capture       
 contacting zone under small sliding assumption.  Redefine the pinball   
 radius if necessary.                                                    
 The resulting pinball region                 0.32536E-03
 Initial penetration/gap is excluded.
 Bonded contact (always) is defined.

 *** NOTE ***                            CP =       1.312   TIME= 18:31:24
 Max.  Initial penetration 7.929979205E-07 was detected between contact  
 element 24793 and target element 24728.                                 
 You may move entire target surface by : x= -5.604619981E-07, y=         
 -5.610002501E-07, z= 2.601909222E-09,to reduce initial penetration.     
  
 Max.  Geometric gap 2.585482622E-04 has been detected between contact   
 element 24801 and target element 24736.                                 
 *WARNING*: The geometric gap/penetration may be too large.  Increase    
 pinball radius if it is a true geometric gap/penetration.  Decrease     
 pinball if it is a false one.                                           
 ****************************************
  

 *** NOTE ***                            CP =       1.312   TIME= 18:31:24
 Symmetric Deformable- deformable contact pair identified by real        
 constant set 12 and contact element type 12 has been set up.  The       
 companion pair has real constant set ID 13.  Both pairs should have     
 the same behavior.                                                      
 ANSYS will keep the current pair and deactivate its companion pair,     
 resulting in asymmetric contact.                                        
 Linear contact is defined
 Contact algorithm: Augmented Lagrange method
 Contact detection at: Gauss integration point
 Contact stiffness factor FKN                  10.000    
 The resulting initial contact stiffness      0.31768E+17
 Default penetration tolerance factor FTOLN   0.10000    
 The resulting penetration tolerance          0.11747E-03
 Default opening contact stiffness OPSF will be used.
 Default tangent stiffness factor FKT          1.0000    
 Use constant contact stiffness
 Default Max. friction stress TAUMAX          0.10000E+21
 Average contact surface length               0.16434E-02
 Average contact pair depth                   0.11747E-02
 Default pinball region factor PINB           0.25000    
 *WARNING*: The default pinball radius may be too small to capture       
 contacting zone under small sliding assumption.  Redefine the pinball   
 radius if necessary.                                                    
 The resulting pinball region                 0.29367E-03
 Initial penetration/gap is excluded.
 Bonded contact (always) is defined.

 *** NOTE ***                            CP =       1.312   TIME= 18:31:24
 Max.  Initial penetration 8.690629088E-07 was detected between contact  
 element 24915 and target element 25001.                                 
 You may move entire target surface by : x= 6.341966492E-07, y=          
 3.704730812E-07, z= -4.645585492E-07,to reduce initial penetration.     
  
 Max.  Geometric gap 2.885155652E-04 has been detected between contact   
 element 24924 and target element 25034.                                 
 *WARNING*: The geometric gap/penetration may be too large.  Increase    
 pinball radius if it is a true geometric gap/penetration.  Decrease     
 pinball if it is a false one.                                           
 ****************************************
  

 *** NOTE ***                            CP =       1.312   TIME= 18:31:24
 Symmetric Deformable- deformable contact pair identified by real        
 constant set 13 and contact element type 12 has been set up.  The       
 companion pair has real constant set ID 12.  Both pairs should have     
 the same behavior.                                                      
 ANSYS will deactivate the current pair and keep its companion pair,     
 resulting in asymmetric contact.                                        
 Linear contact is defined
 Contact algorithm: Augmented Lagrange method
 Contact detection at: Gauss integration point
 Contact stiffness factor FKN                  10.000    
 The resulting initial contact stiffness      0.31768E+17
 Default penetration tolerance factor FTOLN   0.10000    
 The resulting penetration tolerance          0.12591E-03
 Default opening contact stiffness OPSF will be used.
 Default tangent stiffness factor FKT          1.0000    
 Use constant contact stiffness
 Default Max. friction stress TAUMAX          0.10000E+21
 Average contact surface length               0.13961E-02
 Average contact pair depth                   0.12591E-02
 Default pinball region factor PINB           0.25000    
 *WARNING*: The default pinball radius may be too small to capture       
 contacting zone under small sliding assumption.  Redefine the pinball   
 radius if necessary.                                                    
 The resulting pinball region                 0.31479E-03
 Initial penetration/gap is excluded.
 Bonded contact (always) is defined.

 *** NOTE ***                            CP =       1.312   TIME= 18:31:24
 Max.  Initial penetration 7.92997801E-07 was detected between contact   
 element 24946 and target element 24885.                                 
 You may move entire target surface by : x= -5.604619142E-07, y=         
 -3.47743627E-07, z= 4.402298547E-07,to reduce initial penetration.      
  
 Max.  Geometric gap 2.585529132E-04 has been detected between contact   
 element 24956 and target element 24889.                                 
 *WARNING*: The geometric gap/penetration may be too large.  Increase    
 pinball radius if it is a true geometric gap/penetration.  Decrease     
 pinball if it is a false one.                                           
 ****************************************
  

 *** NOTE ***                            CP =       1.312   TIME= 18:31:24
 Symmetric Deformable- deformable contact pair identified by real        
 constant set 14 and contact element type 14 has been set up.  The       
 companion pair has real constant set ID 15.  Both pairs should have     
 the same behavior.                                                      
 ANSYS will keep the current pair and deactivate its companion pair,     
 resulting in asymmetric contact.                                        
 Linear contact is defined
 Contact algorithm: Augmented Lagrange method
 Contact detection at: Gauss integration point
 Contact stiffness factor FKN                  10.000    
 The resulting initial contact stiffness      0.30659E+17
 Default penetration tolerance factor FTOLN   0.10000    
 The resulting penetration tolerance          0.12612E-03
 Default opening contact stiffness OPSF will be used.
 Default tangent stiffness factor FKT          1.0000    
 Use constant contact stiffness
 Default Max. friction stress TAUMAX          0.10000E+21
 Average contact surface length               0.16419E-02
 Average contact pair depth                   0.12612E-02
 Default pinball region factor PINB           0.25000    
 *WARNING*: The default pinball radius may be too small to capture       
 contacting zone under small sliding assumption.  Redefine the pinball   
 radius if necessary.                                                    
 The resulting pinball region                 0.31531E-03
 Initial penetration/gap is excluded.
 Bonded contact (always) is defined.

 *** NOTE ***                            CP =       1.312   TIME= 18:31:24
 Max.  Initial penetration 8.690633111E-07 was detected between contact  
 element 25084 and target element 25162.                                 
 You may move entire target surface by : x= 6.341969428E-07, y=          
 -1.32220373E-07, z= -5.792953041E-07,to reduce initial penetration.     
  
 Max.  Geometric gap 2.885274505E-04 has been detected between contact   
 element 25094 and target element 25194.                                 
 *WARNING*: The geometric gap/penetration may be too large.  Increase    
 pinball radius if it is a true geometric gap/penetration.  Decrease     
 pinball if it is a false one.                                           
 ****************************************
  

 *** NOTE ***                            CP =       1.312   TIME= 18:31:24
 Symmetric Deformable- deformable contact pair identified by real        
 constant set 15 and contact element type 14 has been set up.  The       
 companion pair has real constant set ID 14.  Both pairs should have     
 the same behavior.                                                      
 ANSYS will deactivate the current pair and keep its companion pair,     
 resulting in asymmetric contact.                                        
 Linear contact is defined
 Contact algorithm: Augmented Lagrange method
 Contact detection at: Gauss integration point
 Contact stiffness factor FKN                  10.000    
 The resulting initial contact stiffness      0.30659E+17
 Default penetration tolerance factor FTOLN   0.10000    
 The resulting penetration tolerance          0.13047E-03
 Default opening contact stiffness OPSF will be used.
 Default tangent stiffness factor FKT          1.0000    
 Use constant contact stiffness
 Default Max. friction stress TAUMAX          0.10000E+21
 Average contact surface length               0.14188E-02
 Average contact pair depth                   0.13047E-02
 Default pinball region factor PINB           0.25000    
 *WARNING*: The default pinball radius may be too small to capture       
 contacting zone under small sliding assumption.  Redefine the pinball   
 radius if necessary.                                                    
 The resulting pinball region                 0.32617E-03
 Initial penetration/gap is excluded.
 Bonded contact (always) is defined.

 *** NOTE ***                            CP =       1.312   TIME= 18:31:24
 Max.  Initial penetration 7.929982952E-07 was detected between contact  
 element 25113 and target element 25054.                                 
 You may move entire target surface by : x= -5.604622639E-07, y=         
 1.273710342E-07, z= 5.463560804E-07,to reduce initial penetration.      
  
 Max.  Geometric gap 2.585431115E-04 has been detected between contact   
 element 25124 and target element 25062.                                 
 *WARNING*: The geometric gap/penetration may be too large.  Increase    
 pinball radius if it is a true geometric gap/penetration.  Decrease     
 pinball if it is a false one.                                           
 ****************************************
  

 *** NOTE ***                            CP =       1.312   TIME= 18:31:24
 Symmetric Deformable- deformable contact pair identified by real        
 constant set 16 and contact element type 16 has been set up.  The       
 companion pair has real constant set ID 17.  Both pairs should have     
 the same behavior.                                                      
 ANSYS will keep the current pair and deactivate its companion pair,     
 resulting in asymmetric contact.                                        
 Linear contact is defined
 Contact algorithm: Augmented Lagrange method
 Contact detection at: Gauss integration point
 Contact stiffness factor FKN                  10.000    
 The resulting initial contact stiffness      0.31482E+17
 Default penetration tolerance factor FTOLN   0.10000    
 The resulting penetration tolerance          0.12155E-03
 Default opening contact stiffness OPSF will be used.
 Default tangent stiffness factor FKT          1.0000    
 Use constant contact stiffness
 Default Max. friction stress TAUMAX          0.10000E+21
 Average contact surface length               0.16381E-02
 Average contact pair depth                   0.12155E-02
 Default pinball region factor PINB           0.25000    
 *WARNING*: The default pinball radius may be too small to capture       
 contacting zone under small sliding assumption.  Redefine the pinball   
 radius if necessary.                                                    
 The resulting pinball region                 0.30387E-03
 Initial penetration/gap is excluded.
 Bonded contact (always) is defined.

 *** NOTE ***                            CP =       1.312   TIME= 18:31:24
 Max.  Initial penetration 8.690632606E-07 was detected between contact  
 element 25242 and target element 25322.                                 
 You may move entire target surface by : x= 6.341969055E-07, y=          
 -5.353493297E-07, z= -2.578106498E-07,to reduce initial penetration.    
  
 Max.  Geometric gap 2.848066597E-04 has been detected between contact   
 element 25252 and target element 25352.                                 
 *WARNING*: The geometric gap/penetration may be too large.  Increase    
 pinball radius if it is a true geometric gap/penetration.  Decrease     
 pinball if it is a false one.                                           
 ****************************************
  

 *** NOTE ***                            CP =       1.312   TIME= 18:31:24
 Symmetric Deformable- deformable contact pair identified by real        
 constant set 17 and contact element type 16 has been set up.  The       
 companion pair has real constant set ID 16.  Both pairs should have     
 the same behavior.                                                      
 ANSYS will deactivate the current pair and keep its companion pair,     
 resulting in asymmetric contact.                                        
 Linear contact is defined
 Contact algorithm: Augmented Lagrange method
 Contact detection at: Gauss integration point
 Contact stiffness factor FKN                  10.000    
 The resulting initial contact stiffness      0.31482E+17
 Default penetration tolerance factor FTOLN   0.10000    
 The resulting penetration tolerance          0.12705E-03
 Default opening contact stiffness OPSF will be used.
 Default tangent stiffness factor FKT          1.0000    
 Use constant contact stiffness
 Default Max. friction stress TAUMAX          0.10000E+21
 Average contact surface length               0.14007E-02
 Average contact pair depth                   0.12705E-02
 Default pinball region factor PINB           0.25000    
 *WARNING*: The default pinball radius may be too small to capture       
 contacting zone under small sliding assumption.  Redefine the pinball   
 radius if necessary.                                                    
 The resulting pinball region                 0.31764E-03
 Initial penetration/gap is excluded.
 Bonded contact (always) is defined.

 *** NOTE ***                            CP =       1.312   TIME= 18:31:24
 Max.  Initial penetration 7.929982873E-07 was detected between contact  
 element 25273 and target element 25212.                                 
 You may move entire target surface by : x= -5.604622582E-07, y=         
 5.065729201E-07, z= 2.410647577E-07,to reduce initial penetration.      
  
 Max.  Geometric gap 2.585280946E-04 has been detected between contact   
 element 25282 and target element 25220.                                 
 *WARNING*: The geometric gap/penetration may be too large.  Increase    
 pinball radius if it is a true geometric gap/penetration.  Decrease     
 pinball if it is a false one.                                           
 ****************************************
  

 *** NOTE ***                            CP =       1.312   TIME= 18:31:24
 Symmetric Deformable- deformable contact pair identified by real        
 constant set 18 and contact element type 18 has been set up.  The       
 companion pair has real constant set ID 19.  Both pairs should have     
 the same behavior.                                                      
 ANSYS will keep the current pair and deactivate its companion pair,     
 resulting in asymmetric contact.                                        
 Linear contact is defined
 Contact algorithm: Augmented Lagrange method
 Contact detection at: Gauss integration point
 Contact stiffness factor FKN                  10.000    
 The resulting initial contact stiffness      0.29928E+17
 Default penetration tolerance factor FTOLN   0.10000    
 The resulting penetration tolerance          0.13366E-03
 Default opening contact stiffness OPSF will be used.
 Default tangent stiffness factor FKT          1.0000    
 Use constant contact stiffness
 Default Max. friction stress TAUMAX          0.10000E+21
 Average contact surface length               0.16406E-02
 Average contact pair depth                   0.13366E-02
 Default pinball region factor PINB           0.25000    
 *WARNING*: The default pinball radius may be too small to capture       
 contacting zone under small sliding assumption.  Redefine the pinball   
 radius if necessary.                                                    
 The resulting pinball region                 0.33414E-03
 Initial penetration/gap is excluded.
 Bonded contact (always) is defined.

 *** NOTE ***                            CP =       1.312   TIME= 18:31:24
 Max.  Initial penetration 8.690633249E-07 was detected between contact  
 element 25401 and target element 25482.                                 
 You may move entire target surface by : x= 6.341969525E-07, y=          
 -5.353493693E-07, z= 2.578106689E-07,to reduce initial penetration.     
  
 Max.  Geometric gap 2.97322012E-04 has been detected between contact    
 element 25418 and target element 25478.                                 
 *WARNING*: The geometric gap/penetration may be too large.  Increase    
 pinball radius if it is a true geometric gap/penetration.  Decrease     
 pinball if it is a false one.                                           
 ****************************************
  

 *** NOTE ***                            CP =       1.312   TIME= 18:31:24
 Symmetric Deformable- deformable contact pair identified by real        
 constant set 19 and contact element type 18 has been set up.  The       
 companion pair has real constant set ID 18.  Both pairs should have     
 the same behavior.                                                      
 ANSYS will deactivate the current pair and keep its companion pair,     
 resulting in asymmetric contact.                                        
 Linear contact is defined
 Contact algorithm: Augmented Lagrange method
 Contact detection at: Gauss integration point
 Contact stiffness factor FKN                  10.000    
 The resulting initial contact stiffness      0.29928E+17
 Default penetration tolerance factor FTOLN   0.10000    
 The resulting penetration tolerance          0.12925E-03
 Default opening contact stiffness OPSF will be used.
 Default tangent stiffness factor FKT          1.0000    
 Use constant contact stiffness
 Default Max. friction stress TAUMAX          0.10000E+21
 Average contact surface length               0.14030E-02
 Average contact pair depth                   0.12925E-02
 Default pinball region factor PINB           0.25000    
 *WARNING*: The default pinball radius may be too small to capture       
 contacting zone under small sliding assumption.  Redefine the pinball   
 radius if necessary.                                                    
 The resulting pinball region                 0.32311E-03
 Initial penetration/gap is excluded.
 Bonded contact (always) is defined.

 *** NOTE ***                            CP =       1.312   TIME= 18:31:24
 Max.  Initial penetration 7.929982133E-07 was detected between contact  
 element 25431 and target element 25371.                                 
 You may move entire target surface by : x= -5.604622051E-07, y=         
 5.043150206E-07, z= -2.457532156E-07,to reduce initial penetration.     
  
 Max.  Geometric gap 2.58553659E-04 has been detected between contact    
 element 25441 and target element 25375.                                 
 *WARNING*: The geometric gap/penetration may be too large.  Increase    
 pinball radius if it is a true geometric gap/penetration.  Decrease     
 pinball if it is a false one.                                           
 ****************************************
  

 *** NOTE ***                            CP =       1.312   TIME= 18:31:24
 Symmetric Deformable- deformable contact pair identified by real        
 constant set 20 and contact element type 20 has been set up.  The       
 companion pair has real constant set ID 21.  Both pairs should have     
 the same behavior.                                                      
 ANSYS will deactivate the current pair and keep its companion pair,     
 resulting in asymmetric contact.                                        
 Linear contact is defined
 Contact algorithm: Augmented Lagrange method
 Contact detection at: Gauss integration point
 Contact stiffness factor FKN                  10.000    
 The resulting initial contact stiffness      0.27872E+17
 Default penetration tolerance factor FTOLN   0.10000    
 The resulting penetration tolerance          0.14351E-03
 Default opening contact stiffness OPSF will be used.
 Default tangent stiffness factor FKT          1.0000    
 Use constant contact stiffness
 Default Max. friction stress TAUMAX          0.10000E+21
 Average contact surface length               0.16367E-02
 Average contact pair depth                   0.14351E-02
 Default pinball region factor PINB           0.25000    
 *WARNING*: The default pinball radius may be too small to capture       
 contacting zone under small sliding assumption.  Redefine the pinball   
 radius if necessary.                                                    
 The resulting pinball region                 0.35878E-03
 Initial penetration/gap is excluded.
 Bonded contact (always) is defined.

 *** NOTE ***                            CP =       1.312   TIME= 18:31:24
 Max.  Initial penetration 8.690633026E-07 was detected between contact  
 element 25567 and target element 25639.                                 
 You may move entire target surface by : x= 6.341969366E-07, y=          
 -1.322203717E-07, z= 5.792952985E-07,to reduce initial penetration.     
  
 Max.  Geometric gap 3.458255314E-04 has been detected between contact   
 element 25575 and target element 25635.                                 
 *WARNING*: The geometric gap/penetration may be too large.  Increase    
 pinball radius if it is a true geometric gap/penetration.  Decrease     
 pinball if it is a false one.                                           
 ****************************************
  

 *** NOTE ***                            CP =       1.312   TIME= 18:31:24
 Symmetric Deformable- deformable contact pair identified by real        
 constant set 21 and contact element type 20 has been set up.  The       
 companion pair has real constant set ID 20.  Both pairs should have     
 the same behavior.                                                      
 ANSYS will keep the current pair and deactivate its companion pair,     
 resulting in asymmetric contact.                                        
 Linear contact is defined
 Contact algorithm: Augmented Lagrange method
 Contact detection at: Gauss integration point
 Contact stiffness factor FKN                  10.000    
 The resulting initial contact stiffness      0.27872E+17
 Default penetration tolerance factor FTOLN   0.10000    
 The resulting penetration tolerance          0.13038E-03
 Default opening contact stiffness OPSF will be used.
 Default tangent stiffness factor FKT          1.0000    
 Use constant contact stiffness
 Default Max. friction stress TAUMAX          0.10000E+21
 Average contact surface length               0.14306E-02
 Average contact pair depth                   0.13038E-02
 Default pinball region factor PINB           0.25000    
 *WARNING*: The default pinball radius may be too small to capture       
 contacting zone under small sliding assumption.  Redefine the pinball   
 radius if necessary.                                                    
 The resulting pinball region                 0.32596E-03
 Initial penetration/gap is excluded.
 Bonded contact (always) is defined.

 *** NOTE ***                            CP =       1.312   TIME= 18:31:24
 Max.  Initial penetration 7.929981544E-07 was detected between contact  
 element 25595 and target element 25535.                                 
 You may move entire target surface by : x= -5.604621637E-07, y=         
 1.22297662E-07, z= -5.47513943E-07,to reduce initial penetration.       
  
 Max.  Geometric gap 2.585460264E-04 has been detected between contact   
 element 25603 and target element 25538.                                 
 *WARNING*: The geometric gap/penetration may be too large.  Increase    
 pinball radius if it is a true geometric gap/penetration.  Decrease     
 pinball if it is a false one.                                           
 ****************************************
  

 *** NOTE ***                            CP =       1.312   TIME= 18:31:24
 Symmetric Deformable- deformable contact pair identified by real        
 constant set 22 and contact element type 22 has been set up.  The       
 companion pair has real constant set ID 23.  Both pairs should have     
 the same behavior.                                                      
 ANSYS will keep the current pair and deactivate its companion pair,     
 resulting in asymmetric contact.                                        
 Linear contact is defined
 Contact algorithm: Augmented Lagrange method
 Contact detection at: Gauss integration point
 Contact stiffness factor FKN                  10.000    
 The resulting initial contact stiffness      0.28037E+17
 Default penetration tolerance factor FTOLN   0.10000    
 The resulting penetration tolerance          0.14267E-03
 Default opening contact stiffness OPSF will be used.
 Default tangent stiffness factor FKT          1.0000    
 Use constant contact stiffness
 Default Max. friction stress TAUMAX          0.10000E+21
 Average contact surface length               0.16403E-02
 Average contact pair depth                   0.14267E-02
 Default pinball region factor PINB           0.25000    
 *WARNING*: The default pinball radius may be too small to capture       
 contacting zone under small sliding assumption.  Redefine the pinball   
 radius if necessary.                                                    
 The resulting pinball region                 0.35667E-03
 Initial penetration/gap is excluded.
 Bonded contact (always) is defined.

 *** NOTE ***                            CP =       1.312   TIME= 18:31:24
 Max.  Initial penetration 8.690631872E-07 was detected between contact  
 element 25715 and target element 25800.                                 
 You may move entire target surface by : x= 6.341968524E-07, y=          
 3.704732E-07, z= 4.645586981E-07,to reduce initial penetration.         
  
 Max.  Geometric gap 3.407988295E-04 has been detected between contact   
 element 25727 and target element 25796.                                 
 *WARNING*: The geometric gap/penetration may be too large.  Increase    
 pinball radius if it is a true geometric gap/penetration.  Decrease     
 pinball if it is a false one.                                           
 ****************************************
  

 *** NOTE ***                            CP =       1.312   TIME= 18:31:24
 Symmetric Deformable- deformable contact pair identified by real        
 constant set 23 and contact element type 22 has been set up.  The       
 companion pair has real constant set ID 22.  Both pairs should have     
 the same behavior.                                                      
 ANSYS will deactivate the current pair and keep its companion pair,     
 resulting in asymmetric contact.                                        
 Linear contact is defined
 Contact algorithm: Augmented Lagrange method
 Contact detection at: Gauss integration point
 Contact stiffness factor FKN                  10.000    
 The resulting initial contact stiffness      0.28037E+17
 Default penetration tolerance factor FTOLN   0.10000    
 The resulting penetration tolerance          0.12556E-03
 Default opening contact stiffness OPSF will be used.
 Default tangent stiffness factor FKT          1.0000    
 Use constant contact stiffness
 Default Max. friction stress TAUMAX          0.10000E+21
 Average contact surface length               0.13856E-02
 Average contact pair depth                   0.12556E-02
 Default pinball region factor PINB           0.25000    
 *WARNING*: The default pinball radius may be too small to capture       
 contacting zone under small sliding assumption.  Redefine the pinball   
 radius if necessary.                                                    
 The resulting pinball region                 0.31390E-03
 Initial penetration/gap is excluded.
 Bonded contact (always) is defined.

 *** NOTE ***                            CP =       1.312   TIME= 18:31:24
 Max.  Initial penetration 7.929980875E-07 was detected between contact  
 element 25745 and target element 25685.                                 
 You may move entire target surface by : x= -5.604621167E-07, y=         
 -3.518122635E-07, z= -4.369854847E-07,to reduce initial penetration.    
  
 Max.  Geometric gap 2.585527547E-04 has been detected between contact   
 element 25755 and target element 25689.                                 
 *WARNING*: The geometric gap/penetration may be too large.  Increase    
 pinball radius if it is a true geometric gap/penetration.  Decrease     
 pinball if it is a false one.                                           
 ****************************************
  

 *** NOTE ***                            CP =       1.312   TIME= 18:31:24
 Symmetric Deformable- deformable contact pair identified by real        
 constant set 24 and contact element type 24 has been set up.  The       
 companion pair has real constant set ID 25.  Both pairs should have     
 the same behavior.                                                      
 ANSYS will deactivate the current pair and keep its companion pair,     
 resulting in asymmetric contact.                                        
 Linear contact is defined
 Contact algorithm: Augmented Lagrange method
 Contact detection at: Gauss integration point
 Contact stiffness factor FKN                  10.000    
 The resulting initial contact stiffness      0.28772E+17
 Default penetration tolerance factor FTOLN   0.10000    
 The resulting penetration tolerance          0.13902E-03
 Default opening contact stiffness OPSF will be used.
 Default tangent stiffness factor FKT          1.0000    
 Use constant contact stiffness
 Default Max. friction stress TAUMAX          0.10000E+21
 Average contact surface length               0.31153E-02
 Average contact pair depth                   0.13902E-02
 Default pinball region factor PINB           0.25000    
 *WARNING*: The default pinball radius may be too small to capture       
 contacting zone under small sliding assumption.  Redefine the pinball   
 radius if necessary.                                                    
 The resulting pinball region                 0.34756E-03
 Initial penetration/gap is excluded.
 Bonded contact (always) is defined.

 *** NOTE ***                            CP =       1.312   TIME= 18:31:24
 Max.  Initial penetration 1.897770291E-04 was detected between contact  
 element 25861 and target element 25969.                                 
 You may move entire target surface by : x= 8.639056597E-05, y=          
 -1.662557312E-04, z= -3.018315319E-05,to reduce initial penetration.    
  
 Max.  Geometric gap 3.443126229E-04 has been detected between contact   
 element 25866 and target element 25951.                                 
 *WARNING*: The geometric gap/penetration may be too large.  Increase    
 pinball radius if it is a true geometric gap/penetration.  Decrease     
 pinball if it is a false one.                                           
 ****************************************
  

 *** NOTE ***                            CP =       1.312   TIME= 18:31:24
 Symmetric Deformable- deformable contact pair identified by real        
 constant set 25 and contact element type 24 has been set up.  The       
 companion pair has real constant set ID 24.  Both pairs should have     
 the same behavior.                                                      
 ANSYS will keep the current pair and deactivate its companion pair,     
 resulting in asymmetric contact.                                        
 Linear contact is defined
 Contact algorithm: Augmented Lagrange method
 Contact detection at: Gauss integration point
 Contact stiffness factor FKN                  10.000    
 The resulting initial contact stiffness      0.28772E+17
 Default penetration tolerance factor FTOLN   0.10000    
 The resulting penetration tolerance          0.12843E-03
 Default opening contact stiffness OPSF will be used.
 Default tangent stiffness factor FKT          1.0000    
 Use constant contact stiffness
 Default Max. friction stress TAUMAX          0.10000E+21
 Average contact surface length               0.14363E-02
 Average contact pair depth                   0.12843E-02
 Default pinball region factor PINB           0.25000    
 *WARNING*: The default pinball radius may be too small to capture       
 contacting zone under small sliding assumption.  Redefine the pinball   
 radius if necessary.                                                    
 The resulting pinball region                 0.32109E-03
 Initial penetration/gap is excluded.
 Bonded contact (always) is defined.

 *** NOTE ***                            CP =       1.312   TIME= 18:31:24
 Max.  Initial penetration 2.903298041E-04 was detected between contact  
 element 25916 and target element 25849.                                 
 You may move entire target surface by : x= -1.337619289E-04, y=         
 2.452047515E-04, z= 7.920714232E-05,to reduce initial penetration.      
  
 Max.  Geometric gap 3.17950791E-04 has been detected between contact    
 element 25871 and target element 25853.                                 
 *WARNING*: The geometric gap/penetration may be too large.  Increase    
 pinball radius if it is a true geometric gap/penetration.  Decrease     
 pinball if it is a false one.                                           
 ****************************************
  

 *** NOTE ***                            CP =       1.312   TIME= 18:31:24
 Symmetric Deformable- deformable contact pair identified by real        
 constant set 26 and contact element type 26 has been set up.  The       
 companion pair has real constant set ID 27.  Both pairs should have     
 the same behavior.                                                      
 ANSYS will deactivate the current pair and keep its companion pair,     
 resulting in asymmetric contact.                                        
 Linear contact is defined
 Contact algorithm: Augmented Lagrange method
 Contact detection at: Gauss integration point
 Contact stiffness factor FKN                  10.000    
 The resulting initial contact stiffness      0.25216E+17
 Default penetration tolerance factor FTOLN   0.10000    
 The resulting penetration tolerance          0.15863E-03
 Default opening contact stiffness OPSF will be used.
 Default tangent stiffness factor FKT          1.0000    
 Use constant contact stiffness
 Default Max. friction stress TAUMAX          0.10000E+21
 Average contact surface length               0.30588E-02
 Average contact pair depth                   0.15863E-02
 Default pinball region factor PINB           0.25000    
 *WARNING*: The default pinball radius may be too small to capture       
 contacting zone under small sliding assumption.  Redefine the pinball   
 radius if necessary.                                                    
 The resulting pinball region                 0.39658E-03
 Initial penetration/gap is excluded.
 Bonded contact (always) is defined.

 *** NOTE ***                            CP =       1.312   TIME= 18:31:24
 Min.  Initial gap 4.552828078E-07 was detected between contact element  
 25990 and target element 26099.                                         
 The gap is closed due to initial settings.                              
  
 Max.  Geometric gap 3.906339505E-04 has been detected between contact   
 element 25991 and target element 26082.                                 
 *WARNING*: The geometric gap/penetration may be too large.  Increase    
 pinball radius if it is a true geometric gap/penetration.  Decrease     
 pinball if it is a false one.                                           
 ****************************************
  

 *** NOTE ***                            CP =       1.312   TIME= 18:31:24
 Symmetric Deformable- deformable contact pair identified by real        
 constant set 27 and contact element type 26 has been set up.  The       
 companion pair has real constant set ID 26.  Both pairs should have     
 the same behavior.                                                      
 ANSYS will keep the current pair and deactivate its companion pair,     
 resulting in asymmetric contact.                                        
 Linear contact is defined
 Contact algorithm: Augmented Lagrange method
 Contact detection at: Gauss integration point
 Contact stiffness factor FKN                  10.000    
 The resulting initial contact stiffness      0.25216E+17
 Default penetration tolerance factor FTOLN   0.10000    
 The resulting penetration tolerance          0.12464E-03
 Default opening contact stiffness OPSF will be used.
 Default tangent stiffness factor FKT          1.0000    
 Use constant contact stiffness
 Default Max. friction stress TAUMAX          0.10000E+21
 Average contact surface length               0.13963E-02
 Average contact pair depth                   0.12464E-02
 Default pinball region factor PINB           0.25000    
 *WARNING*: The default pinball radius may be too small to capture       
 contacting zone under small sliding assumption.  Redefine the pinball   
 radius if necessary.                                                    
 The resulting pinball region                 0.31159E-03
 Initial penetration/gap is excluded.
 Bonded contact (always) is defined.

 *** NOTE ***                            CP =       1.312   TIME= 18:31:24
 Max.  Initial penetration 3.607775189E-06 was detected between contact  
 element 26039 and target element 25985.                                 
 You may move entire target surface by : x= 2.611472968E-07, y=          
 2.302033668E-06, z= -2.76558943E-06,to reduce initial penetration.      
  
 Max.  Geometric gap 2.997992339E-04 has been detected between contact   
 element 26026 and target element 25977.                                 
 *WARNING*: The geometric gap/penetration may be too large.  Increase    
 pinball radius if it is a true geometric gap/penetration.  Decrease     
 pinball if it is a false one.                                           
 ****************************************
  

 *** NOTE ***                            CP =       1.312   TIME= 18:31:24
 Symmetric Deformable- deformable contact pair identified by real        
 constant set 28 and contact element type 28 has been set up.  The       
 companion pair has real constant set ID 29.  Both pairs should have     
 the same behavior.                                                      
 ANSYS will deactivate the current pair and keep its companion pair,     
 resulting in asymmetric contact.                                        
 Linear contact is defined
 Contact algorithm: Augmented Lagrange method
 Contact detection at: Gauss integration point
 Contact stiffness factor FKN                  10.000    
 The resulting initial contact stiffness      0.30935E+17
 Default penetration tolerance factor FTOLN   0.10000    
 The resulting penetration tolerance          0.12389E-03
 Default opening contact stiffness OPSF will be used.
 Default tangent stiffness factor FKT          1.0000    
 Use constant contact stiffness
 Default Max. friction stress TAUMAX          0.10000E+21
 Average contact surface length               0.30477E-02
 Average contact pair depth                   0.12389E-02
 Default pinball region factor PINB           0.25000    
 *WARNING*: The default pinball radius may be too small to capture       
 contacting zone under small sliding assumption.  Redefine the pinball   
 radius if necessary.                                                    
 The resulting pinball region                 0.30972E-03
 Initial penetration/gap is excluded.
 Bonded contact (always) is defined.

 *** NOTE ***                            CP =       1.312   TIME= 18:31:24
 Max.  Initial penetration 2.126432203E-04 was detected between contact  
 element 26140 and target element 26224.                                 
 You may move entire target surface by : x= -5.725494127E-05, y=         
 -1.139967351E-05, z= 2.044726346E-04,to reduce initial penetration.     
  
 Max.  Geometric gap 2.864918704E-04 has been detected between contact   
 element 26131 and target element 26235.                                 
 *WARNING*: The geometric gap/penetration may be too large.  Increase    
 pinball radius if it is a true geometric gap/penetration.  Decrease     
 pinball if it is a false one.                                           
 ****************************************
  

 *** NOTE ***                            CP =       1.312   TIME= 18:31:24
 Symmetric Deformable- deformable contact pair identified by real        
 constant set 29 and contact element type 28 has been set up.  The       
 companion pair has real constant set ID 28.  Both pairs should have     
 the same behavior.                                                      
 ANSYS will keep the current pair and deactivate its companion pair,     
 resulting in asymmetric contact.                                        
 Linear contact is defined
 Contact algorithm: Augmented Lagrange method
 Contact detection at: Gauss integration point
 Contact stiffness factor FKN                  10.000    
 The resulting initial contact stiffness      0.30935E+17
 Default penetration tolerance factor FTOLN   0.10000    
 The resulting penetration tolerance          0.12930E-03
 Default opening contact stiffness OPSF will be used.
 Default tangent stiffness factor FKT          1.0000    
 Use constant contact stiffness
 Default Max. friction stress TAUMAX          0.10000E+21
 Average contact surface length               0.14416E-02
 Average contact pair depth                   0.12930E-02
 Default pinball region factor PINB           0.25000    
 *WARNING*: The default pinball radius may be too small to capture       
 contacting zone under small sliding assumption.  Redefine the pinball   
 radius if necessary.                                                    
 The resulting pinball region                 0.32326E-03
 Initial penetration/gap is excluded.
 Bonded contact (always) is defined.

 *** NOTE ***                            CP =       1.312   TIME= 18:31:24
 Max.  Initial penetration 2.999873151E-04 was detected between contact  
 element 26181 and target element 26126.                                 
 You may move entire target surface by : x= 1.66659211E-04, y=           
 1.365722625E-06, z= -2.494298126E-04,to reduce initial penetration.     
  
 Max.  Geometric gap 3.129318242E-04 has been detected between contact   
 element 26168 and target element 26118.                                 
 *WARNING*: The geometric gap/penetration may be too large.  Increase    
 pinball radius if it is a true geometric gap/penetration.  Decrease     
 pinball if it is a false one.                                           
 ****************************************
  

 *** NOTE ***                            CP =       1.312   TIME= 18:31:24
 Symmetric Deformable- deformable contact pair identified by real        
 constant set 30 and contact element type 30 has been set up.  The       
 companion pair has real constant set ID 31.  Both pairs should have     
 the same behavior.                                                      
 ANSYS will keep the current pair and deactivate its companion pair,     
 resulting in asymmetric contact.                                        
 Linear contact is defined
 Contact algorithm: Augmented Lagrange method
 Contact detection at: Gauss integration point
 Contact stiffness factor FKN                  10.000    
 The resulting initial contact stiffness      0.31548E+17
 Default penetration tolerance factor FTOLN   0.10000    
 The resulting penetration tolerance          0.12567E-03
 Default opening contact stiffness OPSF will be used.
 Default tangent stiffness factor FKT          1.0000    
 Use constant contact stiffness
 Default Max. friction stress TAUMAX          0.10000E+21
 Average contact surface length               0.29522E-02
 Average contact pair depth                   0.12567E-02
 Default pinball region factor PINB           0.25000    
 *WARNING*: The default pinball radius may be too small to capture       
 contacting zone under small sliding assumption.  Redefine the pinball   
 radius if necessary.                                                    
 The resulting pinball region                 0.31417E-03
 Initial penetration/gap is excluded.
 Bonded contact (always) is defined.

 *** NOTE ***                            CP =       1.312   TIME= 18:31:24
 Max.  Initial penetration 6.019866162E-06 was detected between contact  
 element 26266 and target element 26370.                                 
 You may move entire target surface by : x= -3.921321233E-06, y=         
 4.128817023E-06, z= 1.953176485E-06,to reduce initial penetration.      
  
 Max.  Geometric gap 2.331701214E-04 has been detected between contact   
 element 26270 and target element 26376.                                 
 *WARNING*: The geometric gap/penetration may be too large.  Increase    
 pinball radius if it is a true geometric gap/penetration.  Decrease     
 pinball if it is a false one.                                           
 ****************************************
  

 *** NOTE ***                            CP =       1.312   TIME= 18:31:24
 Symmetric Deformable- deformable contact pair identified by real        
 constant set 31 and contact element type 30 has been set up.  The       
 companion pair has real constant set ID 30.  Both pairs should have     
 the same behavior.                                                      
 ANSYS will deactivate the current pair and keep its companion pair,     
 resulting in asymmetric contact.                                        
 Linear contact is defined
 Contact algorithm: Augmented Lagrange method
 Contact detection at: Gauss integration point
 Contact stiffness factor FKN                  10.000    
 The resulting initial contact stiffness      0.31548E+17
 Default penetration tolerance factor FTOLN   0.10000    
 The resulting penetration tolerance          0.12679E-03
 Default opening contact stiffness OPSF will be used.
 Default tangent stiffness factor FKT          1.0000    
 Use constant contact stiffness
 Default Max. friction stress TAUMAX          0.10000E+21
 Average contact surface length               0.14144E-02
 Average contact pair depth                   0.12679E-02
 Default pinball region factor PINB           0.25000    
 *WARNING*: The default pinball radius may be too small to capture       
 contacting zone under small sliding assumption.  Redefine the pinball   
 radius if necessary.                                                    
 The resulting pinball region                 0.31698E-03
 Initial penetration/gap is excluded.
 Bonded contact (always) is defined.

 *** NOTE ***                            CP =       1.312   TIME= 18:31:24
 Max.  Initial penetration 5.858517641E-06 was detected between contact  
 element 26311 and target element 26258.                                 
 You may move entire target surface by : x= 4.24066305E-07, y=           
 -5.210152749E-06, z= -2.64512855E-06,to reduce initial penetration.     
  
 Max.  Geometric gap 2.983338642E-04 has been detected between contact   
 element 26300 and target element 26261.                                 
 *WARNING*: The geometric gap/penetration may be too large.  Increase    
 pinball radius if it is a true geometric gap/penetration.  Decrease     
 pinball if it is a false one.                                           
 ****************************************
  

 *** NOTE ***                            CP =       1.312   TIME= 18:31:24
 Symmetric Deformable- deformable contact pair identified by real        
 constant set 32 and contact element type 32 has been set up.  The       
 companion pair has real constant set ID 33.  Both pairs should have     
 the same behavior.                                                      
 ANSYS will keep the current pair and deactivate its companion pair,     
 resulting in asymmetric contact.                                        
 Linear contact is defined
 Contact algorithm: Augmented Lagrange method
 Contact detection at: Gauss integration point
 Contact stiffness factor FKN                  10.000    
 The resulting initial contact stiffness      0.31022E+17
 Default penetration tolerance factor FTOLN   0.10000    
 The resulting penetration tolerance          0.11617E-03
 Default opening contact stiffness OPSF will be used.
 Default tangent stiffness factor FKT          1.0000    
 Use constant contact stiffness
 Default Max. friction stress TAUMAX          0.10000E+21
 Average contact surface length               0.27623E-02
 Average contact pair depth                   0.11617E-02
 Default pinball region factor PINB           0.25000    
 *WARNING*: The default pinball radius may be too small to capture       
 contacting zone under small sliding assumption.  Redefine the pinball   
 radius if necessary.                                                    
 The resulting pinball region                 0.29043E-03
 Initial penetration/gap is excluded.
 Bonded contact (always) is defined.

 *** NOTE ***                            CP =       1.312   TIME= 18:31:24
 Max.  Initial penetration 6.019868818E-06 was detected between contact  
 element 26399 and target element 26511.                                 
 You may move entire target surface by : x= -3.921322962E-06, y=         
 4.101331964E-06, z= -2.010254446E-06,to reduce initial penetration.     
  
 Max.  Geometric gap 2.756677001E-04 has been detected between contact   
 element 26401 and target element 26495.                                 
 *WARNING*: The geometric gap/penetration may be too large.  Increase    
 pinball radius if it is a true geometric gap/penetration.  Decrease     
 pinball if it is a false one.                                           
 ****************************************
  

 *** NOTE ***                            CP =       1.312   TIME= 18:31:24
 Symmetric Deformable- deformable contact pair identified by real        
 constant set 33 and contact element type 32 has been set up.  The       
 companion pair has real constant set ID 32.  Both pairs should have     
 the same behavior.                                                      
 ANSYS will deactivate the current pair and keep its companion pair,     
 resulting in asymmetric contact.                                        
 Linear contact is defined
 Contact algorithm: Augmented Lagrange method
 Contact detection at: Gauss integration point
 Contact stiffness factor FKN                  10.000    
 The resulting initial contact stiffness      0.31022E+17
 Default penetration tolerance factor FTOLN   0.10000    
 The resulting penetration tolerance          0.12894E-03
 Default opening contact stiffness OPSF will be used.
 Default tangent stiffness factor FKT          1.0000    
 Use constant contact stiffness
 Default Max. friction stress TAUMAX          0.10000E+21
 Average contact surface length               0.14293E-02
 Average contact pair depth                   0.12894E-02
 Default pinball region factor PINB           0.25000    
 *WARNING*: The default pinball radius may be too small to capture       
 contacting zone under small sliding assumption.  Redefine the pinball   
 radius if necessary.                                                    
 The resulting pinball region                 0.32235E-03
 Initial penetration/gap is excluded.
 Bonded contact (always) is defined.

 *** NOTE ***                            CP =       1.312   TIME= 18:31:24
 Max.  Initial penetration 3.756927863E-06 was detected between contact  
 element 26450 and target element 26393.                                 
 You may move entire target surface by : x= 2.719436467E-07, y=          
 -3.409358888E-06, z= 1.55461429E-06,to reduce initial penetration.      
  
 Max.  Geometric gap 3.220512709E-04 has been detected between contact   
 element 26415 and target element 26384.                                 
 *WARNING*: The geometric gap/penetration may be too large.  Increase    
 pinball radius if it is a true geometric gap/penetration.  Decrease     
 pinball if it is a false one.                                           
 ****************************************
  

 *** NOTE ***                            CP =       1.312   TIME= 18:31:24
 Symmetric Deformable- deformable contact pair identified by real        
 constant set 34 and contact element type 34 has been set up.  The       
 companion pair has real constant set ID 35.  Both pairs should have     
 the same behavior.                                                      
 ANSYS will deactivate the current pair and keep its companion pair,     
 resulting in asymmetric contact.                                        
 Linear contact is defined
 Contact algorithm: Augmented Lagrange method
 Contact detection at: Gauss integration point
 Contact stiffness factor FKN                  10.000    
 The resulting initial contact stiffness      0.31369E+17
 Default penetration tolerance factor FTOLN   0.10000    
 The resulting penetration tolerance          0.11576E-03
 Default opening contact stiffness OPSF will be used.
 Default tangent stiffness factor FKT          1.0000    
 Use constant contact stiffness
 Default Max. friction stress TAUMAX          0.10000E+21
 Average contact surface length               0.27928E-02
 Average contact pair depth                   0.11576E-02
 Default pinball region factor PINB           0.25000    
 *WARNING*: The default pinball radius may be too small to capture       
 contacting zone under small sliding assumption.  Redefine the pinball   
 radius if necessary.                                                    
 The resulting pinball region                 0.28939E-03
 Initial penetration/gap is excluded.
 Bonded contact (always) is defined.

 *** NOTE ***                            CP =       1.312   TIME= 18:31:24
 Max.  Initial penetration 8.314189149E-06 was detected between contact  
 element 26542 and target element 26657.                                 
 You may move entire target surface by : x= 5.399154028E-06, y=          
 1.432921102E-06, z= -6.158052785E-06,to reduce initial penetration.     
  
 Max.  Geometric gap 2.013782792E-04 has been detected between contact   
 element 26552 and target element 26656.                                 
 *WARNING*: The geometric gap/penetration may be too large.  Increase    
 pinball radius if it is a true geometric gap/penetration.  Decrease     
 pinball if it is a false one.                                           
 ****************************************
  

 *** NOTE ***                            CP =       1.312   TIME= 18:31:24
 Symmetric Deformable- deformable contact pair identified by real        
 constant set 35 and contact element type 34 has been set up.  The       
 companion pair has real constant set ID 34.  Both pairs should have     
 the same behavior.                                                      
 ANSYS will keep the current pair and deactivate its companion pair,     
 resulting in asymmetric contact.                                        
 Linear contact is defined
 Contact algorithm: Augmented Lagrange method
 Contact detection at: Gauss integration point
 Contact stiffness factor FKN                  10.000    
 The resulting initial contact stiffness      0.31369E+17
 Default penetration tolerance factor FTOLN   0.10000    
 The resulting penetration tolerance          0.12752E-03
 Default opening contact stiffness OPSF will be used.
 Default tangent stiffness factor FKT          1.0000    
 Use constant contact stiffness
 Default Max. friction stress TAUMAX          0.10000E+21
 Average contact surface length               0.14277E-02
 Average contact pair depth                   0.12752E-02
 Default pinball region factor PINB           0.25000    
[...]
 *WARNING*: The geometrical gap may be too large.  Increase pinball if   
 it is a true geometrical gap.  Decrease pinball if it is a false one.   
  
 Max.  Geometrical penetration of -6.019868818E-06 has been detected     
 between contact element 26401 and target element 26495.                 
 For total 14 contact elements, there are 6 elements are in contact.     
 There are 6 elements are in sticking.                                   
 Contacting area 1.687405452E-05.                                        
 Max.  Pinball distance 2.904346749E-04.                                 
 One of the contact searching regions contains at least 16 target        
 elements.                                                               
 Max.  Pressure/force 1.2658541.                                         
 Max.  Normal stiffness 3.102212782E+16.                                 
 Min.  Normal stiffness 3.102212782E+16.                                 
 Max.  Tangential stiffness 9.785366824E+15.                             
 Min.  Tangential stiffness 9.785366824E+15.                             
 *************************************************
  
 *************************************************
  SUMMARY FOR CONTACT PAIR IDENTIFIED BY REAL CONSTANT SET          33

 *** NOTE ***                            CP =       2.359   TIME= 18:31:26
 Contact pair is inactive.                                               
  
 *************************************************
  SUMMARY FOR CONTACT PAIR IDENTIFIED BY REAL CONSTANT SET          34

 *** NOTE ***                            CP =       2.359   TIME= 18:31:26
 Contact pair is inactive.                                               
  
 *************************************************
  SUMMARY FOR CONTACT PAIR IDENTIFIED BY REAL CONSTANT SET          35
 Max.  Penetration of -7.898919179E-19 has been detected between contact 
 element 26594 and target element 26526.                                 
  
 Max.  Geometrical gap of 3.178374007E-04 has been detected between      
 contact element 26580 and target element 26530.                         
 *WARNING*: The geometrical gap may be too large.  Increase pinball if   
 it is a true geometrical gap.  Decrease pinball if it is a false one.   
  
 Max.  Geometrical penetration of -8.458008813E-06 has been detected     
 between contact element 26580 and target element 26530.                 
 For total 54 contact elements, there are 22 elements are in contact.    
 There are 22 elements are in sticking.                                  
 Contacting area 1.640367125E-05.                                        
 Max.  Pinball distance 3.187892382E-04.                                 
 One of the contact searching regions contains at least 11 target        
 elements.                                                               
 Max.  Pressure/force -10.7853465.                                       
 Max.  Normal stiffness 3.136868753E+16.                                 
 Min.  Normal stiffness 3.136868753E+16.                                 
 Max.  Tangential stiffness 2.101314403E+16.                             
 Min.  Tangential stiffness 2.101314403E+16.                             
 *************************************************
  
 *************************************************
  SUMMARY FOR CONTACT PAIR IDENTIFIED BY REAL CONSTANT SET          36

 *** NOTE ***                            CP =       2.359   TIME= 18:31:26
 Contact pair is inactive.                                               
  
 *************************************************
  SUMMARY FOR CONTACT PAIR IDENTIFIED BY REAL CONSTANT SET          37
 Max.  Penetration of -7.438966029E-17 has been detected between contact 
 element 26736 and target element 26674.                                 
  
 Max.  Geometrical gap of 2.936915779E-04 has been detected between      
 contact element 26737 and target element 26669.                         
 *WARNING*: The geometrical gap may be too large.  Increase pinball if   
 it is a true geometrical gap.  Decrease pinball if it is a false one.   
  
 Max.  Geometrical penetration of -2.903298038E-04 has been detected     
 between contact element 26737 and target element 26669.                 
 *WARNING*: The geometrical penetration may be too large.  Increase      
 pinball if it is a true geometrical penetration.  Decrease pinball if   
 it is a false one.                                                      
 For total 70 contact elements, there are 21 elements are in contact.    
 There are 21 elements are in sticking.                                  
 Contacting area 1.613650121E-05.                                        
 Max.  Pinball distance 3.092537791E-04.                                 
 One of the contact searching regions contains at least 10 target        
 elements.                                                               
 Max.  Pressure/force -3.57865375.                                       
 Max.  Normal stiffness 2.605337975E+16.                                 
 Min.  Normal stiffness 2.605337975E+16.                                 
 Max.  Tangential stiffness 1.715701759E+16.                             
 Min.  Tangential stiffness 1.715701759E+16.                             
 *************************************************


                         ***********  PRECISE MASS SUMMARY  ***********

   TOTAL RIGID BODY MASS MATRIX ABOUT ORIGIN
               Translational mass               |   Coupled translational/rotational mass
        0.36386E-01    0.0000        0.0000     |     0.0000      -0.11764E-06  -0.34061E-06
         0.0000       0.36386E-01    0.0000     |    0.11764E-06    0.0000       0.18191E-03
         0.0000        0.0000       0.36386E-01 |    0.34061E-06  -0.18191E-03    0.0000    
     ------------------------------------------ | ------------------------------------------
                                                |         Rotational mass (inertia)
                                                |    0.55734E-05  -0.12489E-08   0.72160E-09
                                                |   -0.12489E-08   0.39843E-05  -0.81067E-09
                                                |    0.72160E-09  -0.81067E-09   0.39840E-05

   TOTAL MASS = 0.36386E-01
     The mass principal axes coincide with the global Cartesian axes

   CENTER OF MASS (X,Y,Z)=   0.49994E-02   0.93611E-05  -0.32332E-05

   TOTAL INERTIA ABOUT CENTER OF MASS
        0.55734E-05   0.45400E-09   0.13344E-09
        0.45400E-09   0.30749E-05  -0.81177E-09
        0.13344E-09  -0.81177E-09   0.30745E-05
     The inertia principal axes coincide with the global Cartesian axes


  *** MASS SUMMARY BY ELEMENT TYPE ***

  TYPE      MASS
     1  0.116333E-01
     2  0.185441E-01
     3  0.886918E-03
     4  0.886918E-03
     5  0.886918E-03
     6  0.886918E-03
     7  0.886918E-03
     8  0.886918E-03
     9  0.886918E-03

 Range of element maximum matrix coefficients in global coordinates
 Maximum = 3.809360097E+10 at element 26270.                             
 Minimum = 39098953 at element 2665.                                     

   *** ELEMENT MATRIX FORMULATION TIMES
     TYPE    NUMBER   ENAME      TOTAL CP  AVE CP

        1      8158  SOLID187      0.500   0.000061
        2      4822  SOLID187      0.453   0.000094
        3       297  SOLID187      0.047   0.000158
        4       297  SOLID187      0.016   0.000053
        5       297  SOLID187      0.016   0.000053
        6       297  SOLID187      0.016   0.000053
        7       297  SOLID187      0.016   0.000053
        8       297  SOLID187      0.000   0.000000
        9       297  SOLID187      0.031   0.000105
       10        78  CONTA174      0.000   0.000000
       11        78  TARGE170      0.000   0.000000
       12        85  CONTA174      0.000   0.000000
       13        85  TARGE170      0.000   0.000000
       14        79  CONTA174      0.016   0.000198
       15        79  TARGE170      0.000   0.000000
       16        79  CONTA174      0.016   0.000198
       17        79  TARGE170      0.000   0.000000
       18        81  CONTA174      0.000   0.000000
       19        81  TARGE170      0.016   0.000193
       20        76  CONTA174      0.000   0.000000
       21        76  TARGE170      0.000   0.000000
       22        85  CONTA174      0.000   0.000000
       23        85  TARGE170      0.000   0.000000
       24        65  CONTA174      0.000   0.000000
       25        65  TARGE170      0.000   0.000000
       26        71  CONTA174      0.000   0.000000
       27        71  TARGE170      0.000   0.000000
       28        68  CONTA174      0.016   0.000230
       29        68  TARGE170      0.000   0.000000
       30        66  CONTA174      0.000   0.000000
       31        66  TARGE170      0.000   0.000000
       32        70  CONTA174      0.000   0.000000
       33        70  TARGE170      0.000   0.000000
       34        70  CONTA174      0.000   0.000000
       35        70  TARGE170      0.000   0.000000
       36        82  CONTA174      0.016   0.000191
       37        82  TARGE170      0.000   0.000000
       38       270  SURF154       0.031   0.000116
 Time at end of element matrix formulation CP = 2.359375.                
 Iteration=    10 Ratio=  0.161554     Limit=  1.000000E-08 Wall=     0.1
 Iteration=    90 Ratio=  9.956407E-04 Limit=  1.000000E-08 Wall=     0.6
 Iteration=   530 Ratio=  2.728246E-06 Limit=  1.000000E-08 Wall=     3.4

 DISTRIBUTED PCG SOLVER SOLUTION CONVERGED

 DISTRIBUTED PCG SOLVER SOLUTION STATISTICS

   NUMBER OF ITERATIONS=         919
   NUMBER OF EQUATIONS =       91641
   LEVEL OF CONVERGENCE=           1
   CALCULATED NORM     = 0.96999E-08
   SPECIFIED TOLERANCE = 0.10000E-07
   TOTAL CPU TIME (sec)=        5.34
   TOTAL WALL TIME(sec)=        5.94
   TOTAL MEMORY (GB)   =        0.04


   *** ELEMENT RESULT CALCULATION TIMES
     TYPE    NUMBER   ENAME      TOTAL CP  AVE CP

        1      8158  SOLID187      0.375   0.000046
        2      4822  SOLID187      0.234   0.000049
        3       297  SOLID187      0.000   0.000000
        4       297  SOLID187      0.000   0.000000
        5       297  SOLID187      0.000   0.000000
        6       297  SOLID187      0.016   0.000053
        7       297  SOLID187      0.031   0.000105
        8       297  SOLID187      0.000   0.000000
        9       297  SOLID187      0.016   0.000053
       10        78  CONTA174      0.000   0.000000
       12        85  CONTA174      0.000   0.000000
       14        79  CONTA174      0.000   0.000000
       16        79  CONTA174      0.000   0.000000
       18        81  CONTA174      0.016   0.000193
       20        76  CONTA174      0.000   0.000000
       22        85  CONTA174      0.000   0.000000
       24        65  CONTA174      0.000   0.000000
       26        71  CONTA174      0.016   0.000220
       28        68  CONTA174      0.000   0.000000
       30        66  CONTA174      0.000   0.000000
       32        70  CONTA174      0.000   0.000000
       34        70  CONTA174      0.016   0.000223
       36        82  CONTA174      0.000   0.000000
       38       270  SURF154       0.000   0.000000

   *** NODAL LOAD CALCULATION TIMES
     TYPE    NUMBER   ENAME      TOTAL CP  AVE CP

        1      8158  SOLID187      0.094   0.000011
        2      4822  SOLID187      0.094   0.000019
        3       297  SOLID187      0.000   0.000000
        4       297  SOLID187      0.031   0.000105
        5       297  SOLID187      0.016   0.000053
        6       297  SOLID187      0.016   0.000053
        7       297  SOLID187      0.000   0.000000
        8       297  SOLID187      0.000   0.000000
        9       297  SOLID187      0.000   0.000000
       10        78  CONTA174      0.000   0.000000
       12        85  CONTA174      0.000   0.000000
       14        79  CONTA174      0.000   0.000000
       16        79  CONTA174      0.000   0.000000
       18        81  CONTA174      0.000   0.000000
       20        76  CONTA174      0.000   0.000000
       22        85  CONTA174      0.000   0.000000
       24        65  CONTA174      0.000   0.000000
       26        71  CONTA174      0.000   0.000000
       28        68  CONTA174      0.000   0.000000
       30        66  CONTA174      0.000   0.000000
       32        70  CONTA174      0.000   0.000000
       34        70  CONTA174      0.000   0.000000
       36        82  CONTA174      0.000   0.000000
       38       270  SURF154       0.000   0.000000
 *** LOAD STEP     1   SUBSTEP     1  COMPLETED.    CUM ITER =      1
 *** TIME =   1.00000         TIME INC =   1.00000      NEW TRIANG MATRIX


 *** ANSYS BINARY FILE STATISTICS
  BUFFER SIZE USED= 16384
        6.375 MB WRITTEN ON ELEMENT SAVED DATA FILE: file0.esav
        5.562 MB WRITTEN ON RESULTS FILE: file0.rst
 *************** Write FE CONNECTORS *********

 WRITE OUT CONSTRAINT EQUATIONS TO FILE= file.ce                                                                                                                                                                                                                                                             
 ****************************************************
 *************** FINISHED SOLVE FOR LS 1 *************

 *GET  _WALLASOL  FROM  ACTI  ITEM=TIME WALL  VALUE=  18.5255556    

 PRINTOUT RESUMED BY /GOP

 *GET  _PCGITER  FROM  ACTI  ITEM=SOLU CGIT  VALUE=  919.000000    

 FINISH SOLUTION PROCESSING


 ***** ROUTINE COMPLETED *****  CP =         8.547



 *** ANSYS - ENGINEERING ANALYSIS SYSTEM  RELEASE 2021 R1          21.1     ***
 DISTRIBUTED ANSYS Mechanical Enterprise Academic Student      

 00000000  VERSION=WINDOWS x64   18:31:33  MAR 04, 2021 CP=      8.562

 bearing-stiffness--Static Structural (A5)                                     



          ***** ANSYS RESULTS INTERPRETATION (POST1) *****

 *** NOTE ***                            CP =       8.562   TIME= 18:31:33
 Reading results into the database (SET command) will update the current 
 displacement and force boundary conditions in the database with the     
 values from the results file for that load set.  Note that any          
 subsequent solutions will use these values unless action is taken to    
 either SAVE the current values or not overwrite them (/EXIT,NOSAVE).    

 Set Encoding of XML File to:ISO-8859-1

 Set Output of XML File to:
     PARM,     ,     ,     ,     ,     ,     ,     ,     ,     ,     ,     ,
         ,     ,     ,     ,     ,     ,     ,

 DATABASE WRITTEN ON FILE  parm.xml                                                                                                                                                                                                                                                            

 EXIT THE ANSYS POST1 DATABASE PROCESSOR


 ***** ROUTINE COMPLETED *****  CP =         8.562



 PRINTOUT RESUMED BY /GOP

 *GET  _WALLDONE  FROM  ACTI  ITEM=TIME WALL  VALUE=  18.5258333    

 PARAMETER _PREPTIME =     0.000000000    

 PARAMETER _SOLVTIME =     8.000000000    

 PARAMETER _POSTTIME =     1.000000000    

 PARAMETER _TOTALTIM =     9.000000000    

 *GET  _DLBRATIO  FROM  ACTI  ITEM=SOLU DLBR  VALUE=  1.01722465    

 *GET  _COMBTIME  FROM  ACTI  ITEM=SOLU COMB  VALUE= 0.708320000E-01
 --- Total number of nodes = 30547
 --- Total number of elements = 17439
 --- Element load balance ratio = 1.01722465
 --- Time to combine distributed files = 7.0832E-02

 EXIT ANSYS WITHOUT SAVING DATABASE


 NUMBER OF WARNING MESSAGES ENCOUNTERED=          3
 NUMBER OF ERROR   MESSAGES ENCOUNTERED=          0

+--------- D I S T R I B U T E D   A N S Y S   S T A T I S T I C S ------------+

Release: 2021 R1            Build: 21.1       Update: UP20201109   Platform: WINDOWS x64 
Date Run: 03/04/2021   Time: 18:31     Process ID: 6344
Operating System: Windows 10  (Build: 19042)

Processor Model: Intel(R) Core(TM) i7-7500U CPU @ 2.70GHz

Compiler: Intel(R) FORTRAN Compiler Version 19.0.0  (Build: 20190206)
          Intel(R) C/C++ Compiler Version 19.0.0  (Build: 20190206)
          Intel(R) Math Kernel Library Version 2020.0.0 Product Build 20191125

Number of machines requested            :    1
Total number of cores available         :    4
Number of physical cores available      :    2
Number of processes requested           :    2
Number of threads per process requested :    1
Total number of cores requested         :    2 (Distributed Memory Parallel)               
MPI Type: INTELMPI
MPI Version: Intel(R) MPI Library 2018 Update 3 for Windows* OS


GPU Acceleration: Not Requested

Job Name: file0
Input File: dummy.dat

  Core                Machine Name   Working Directory
 -----------------------------------------------------
     0             DESKTOP-9SHO0AQ   C:\Users\vinig\Desktop\codes\TCC-assets\programas\ansys-bearing\_ProjectScratch\Scr4CB0
     1             DESKTOP-9SHO0AQ   C:\Users\vinig\Desktop\codes\TCC-assets\programas\ansys-bearing\_ProjectScratch\Scr4CB0
 
Latency time from master to core     1 =    2.586 microseconds
 
Communication speed from master to core     1 =  3479.21 MB/sec

Total CPU time for main thread                    :        8.3 seconds
Total CPU time summed for all threads             :        8.8 seconds

Elapsed time spent obtaining a license            :        0.5 seconds
Elapsed time spent pre-processing model (/PREP7)  :        0.2 seconds
Elapsed time spent solution - preprocessing       :        0.5 seconds
Elapsed time spent computing solution             :        7.7 seconds
Elapsed time spent solution - postprocessing      :        0.1 seconds
Elapsed time spent post-processing model (/POST1) :        0.0 seconds
 
Equation solver used                              :            PCG (symmetric)
Equation solver computational rate                :        4.1 Gflops

Maximum total memory used                         :      204.0 MB
Maximum total memory allocated                    :     3136.0 MB
Total physical memory available                   :          8 GB

Total amount of I/O written to disk               :        0.1 GB
Total amount of I/O read from disk                :        0.0 GB

+------ E N D   D I S T R I B U T E D   A N S Y S   S T A T I S T I C S -------+


 *---------------------------------------------------------------------------*
 |                                                                           |
 |                       DISTRIBUTED ANSYS RUN COMPLETED                     |
 |                                                                           |
 |---------------------------------------------------------------------------|
 |                                                                           |
 | Ansys 2021 R1               Build 21.1         UP20201109     WINDOWS x64 |
 |                                                                           |
 |---------------------------------------------------------------------------|
 |                                                                           |
 | Database Requested(-db)  1024 MB    Scratch Memory Requested      1024 MB |
 | Maximum Database Used      24 MB    Maximum Scratch Memory Used     93 MB |
 |                                                                           |
 |---------------------------------------------------------------------------|
 |                                                                           |
 |        CP Time      (sec) =          8.797       Time  =  18:31:33        |
 |        Elapsed Time (sec) =         11.000       Date  =  03/04/2021      |
 |                                                                           |
 *---------------------------------------------------------------------------*
