
 ANSYS Mechanical Enterprise Academic Student      


 *------------------------------------------------------------------*
 |                                                                  |
 |   W E L C O M E   T O   T H E   A N S Y S (R)  P R O G R A M     |
 |                                                                  |
 *------------------------------------------------------------------*




 ***************************************************************
 *            ANSYS 2021 R1          LEGAL NOTICES             *
 ***************************************************************
 *                                                             *
 * Copyright 1971-2021 ANSYS, Inc.  All rights reserved.       *
 * Unauthorized use, distribution or duplication is            *
 * prohibited.                                                 *
 *                                                             *
 * Ansys is a registered trademark of ANSYS, Inc. or its       *
 * subsidiaries in the United States or other countries.       *
 * See the ANSYS, Inc. online documentation or the ANSYS, Inc. *
 * documentation CD or online help for the complete Legal      *
 * Notice.                                                     *
 *                                                             *
 ***************************************************************
 *                                                             *
 * THIS ANSYS SOFTWARE PRODUCT AND PROGRAM DOCUMENTATION       *
 * INCLUDE TRADE SECRETS AND CONFIDENTIAL AND PROPRIETARY      *
 * PRODUCTS OF ANSYS, INC., ITS SUBSIDIARIES, OR LICENSORS.    *
 * The software products and documentation are furnished by    *
 * ANSYS, Inc. or its subsidiaries under a software license    *
 * agreement that contains provisions concerning               *
 * non-disclosure, copying, length and nature of use,          *
 * compliance with exporting laws, warranties, disclaimers,    *
 * limitations of liability, and remedies, and other           *
 * provisions.  The software products and documentation may be *
 * used, disclosed, transferred, or copied only in accordance  *
 * with the terms and conditions of that software license      *
 * agreement.                                                  *
 *                                                             *
 * ANSYS, Inc. is a UL registered                              *
 * ISO 9001:2015 company.                                      *
 *                                                             *
 ***************************************************************
 *                                                             *
 * This product is subject to U.S. laws governing export and   *
 * re-export.                                                  *
 *                                                             *
 * For U.S. Government users, except as specifically granted   *
 * by the ANSYS, Inc. software license agreement, the use,     *
 * duplication, or disclosure by the United States Government  *
 * is subject to restrictions stated in the ANSYS, Inc.        *
 * software license agreement and FAR 12.212 (for non-DOD      *
 * licenses).                                                  *
 *                                                             *
 ***************************************************************

 2021 R1 
     
 Point Releases and Patches installed:   
     
 Academic Student 2021 R1
 Aqwa 2021 R1
 EnSight 2021 R1 
 FENSAP-ICE 2021 R1  


          *****  ANSYS COMMAND LINE ARGUMENTS  *****
  BATCH MODE REQUESTED (-b)    = NOLIST
  INPUT FILE COPY MODE (-c)    = COPY
  DISTRIBUTED MEMORY PARALLEL REQUESTED
       2 PARALLEL PROCESSES REQUESTED WITH SINGLE THREAD PER PROCESS
    TOTAL OF     2 CORES REQUESTED
  INPUT FILE NAME              = C:\Users\vinig\Desktop\codes\TCC-assets\programas\ansys-bearing\_ProjectScratch\ScrB469\dummy.dat
  OUTPUT FILE NAME             = C:\Users\vinig\Desktop\codes\TCC-assets\programas\ansys-bearing\_ProjectScratch\ScrB469\solve.out
  START-UP FILE MODE           = NOREAD
  STOP FILE MODE               = NOREAD

 RELEASE= 2021 R1              BUILD= 21.1      UP20201109   VERSION=WINDOWS x64 
 CURRENT JOBNAME=file0  23:25:45  MAR 04, 2021 CP=      0.234


 PARAMETER _DS_PROGRESS =     999.0000000    

 /INPUT FILE= ds.dat  LINE=       0



 *** NOTE ***                            CP =       0.297   TIME= 23:25:45
 The /CONFIG,NOELDB command is not valid in a Distributed ANSYS          
 solution.  Command is ignored.                                          

 *GET  _WALLSTRT  FROM  ACTI  ITEM=TIME WALL  VALUE=  23.4291667    

 TITLE= 
 bearing-stiffness--Static Structural (A5)                                     

  ACT Extensions:
      LSDYNA, 2021.1
      5f463412-bd3e-484b-87e7-cbc0a665e474, wbex
  

 SET PARAMETER DIMENSIONS ON  _WB_PROJECTSCRATCH_DIR
  TYPE=STRI  DIMENSIONS=      248        1        1

 PARAMETER _WB_PROJECTSCRATCH_DIR(1) = C:\Users\vinig\Desktop\codes\TCC-assets\programas\ansys-bearing\_ProjectScratch\ScrB469\

 SET PARAMETER DIMENSIONS ON  _WB_SOLVERFILES_DIR
  TYPE=STRI  DIMENSIONS=      248        1        1

 PARAMETER _WB_SOLVERFILES_DIR(1) = C:\Users\vinig\Desktop\codes\TCC-assets\programas\ansys-bearing\bearing-stiffness_files\dp0\SYS\MECH\

 SET PARAMETER DIMENSIONS ON  _WB_USERFILES_DIR
  TYPE=STRI  DIMENSIONS=      248        1        1

 PARAMETER _WB_USERFILES_DIR(1) = C:\Users\vinig\Desktop\codes\TCC-assets\programas\ansys-bearing\bearing-stiffness_files\user_files\
 --- Data in consistent MKS units. See Solving Units in the help system for more

 MKS UNITS SPECIFIED FOR INTERNAL    
  LENGTH        (l)  = METER (M)
  MASS          (M)  = KILOGRAM (KG)
  TIME          (t)  = SECOND (SEC)
  TEMPERATURE   (T)  = CELSIUS (C)
  TOFFSET            = 273.0
  CHARGE        (Q)  = COULOMB
  FORCE         (f)  = NEWTON (N) (KG-M/SEC2)
  HEAT               = JOULE (N-M)

  PRESSURE           = PASCAL (NEWTON/M**2)
  ENERGY        (W)  = JOULE (N-M)
  POWER         (P)  = WATT (N-M/SEC)
  CURRENT       (i)  = AMPERE (COULOMBS/SEC)
  CAPACITANCE   (C)  = FARAD
  INDUCTANCE    (L)  = HENRY
  MAGNETIC FLUX      = WEBER
  RESISTANCE    (R)  = OHM
  ELECTRIC POTENTIAL = VOLT

 INPUT  UNITS ARE ALSO SET TO MKS 

 *** ANSYS - ENGINEERING ANALYSIS SYSTEM  RELEASE 2021 R1          21.1     ***
 DISTRIBUTED ANSYS Mechanical Enterprise Academic Student      

 00000000  VERSION=WINDOWS x64   23:25:45  MAR 04, 2021 CP=      0.297

 bearing-stiffness--Static Structural (A5)                                     



          ***** ANSYS ANALYSIS DEFINITION (PREP7) *****
 *********** Nodes for the whole assembly ***********
 *********** Elements for Body 1 "_6201-2Z_PART1|_6201-2Z_PART1" ***********
 *********** Elements for Body 2 "_6201-2Z_PART2|_6201-2Z_PART2" ***********
 *********** Elements for Body 3 "_6201-2Z_PART3|_6201-2Z_PART3" ***********
 *********** Elements for Body 4 "_6201-2Z_PART3|_6201-2Z_PART3[2]" ***********
 *********** Elements for Body 5 "_6201-2Z_PART3|_6201-2Z_PART3[3]" ***********
 *********** Elements for Body 6 "_6201-2Z_PART3|_6201-2Z_PART3[4]" ***********
 *********** Elements for Body 7 "_6201-2Z_PART3|_6201-2Z_PART3[5]" ***********
 *********** Elements for Body 8 "_6201-2Z_PART3|_6201-2Z_PART3[6]" ***********
 *********** Elements for Body 9 "_6201-2Z_PART3|_6201-2Z_PART3[7]" ***********
 *********** Send User Defined Coordinate System(s) ***********
 *********** Set Reference Temperature ***********
 *********** Send Materials ***********
 *********** Create Contact "Bonded - _6201-2Z_PART1|_6201-2Z_PART1 To _6201-2Z_
             Real Constant Set For Above Contact Is 11 & 10
 *********** Create Contact "Bonded - _6201-2Z_PART1|_6201-2Z_PART1 To _6201-2Z_
             Real Constant Set For Above Contact Is 13 & 12
 *********** Create Contact "Bonded - _6201-2Z_PART1|_6201-2Z_PART1 To _6201-2Z_
             Real Constant Set For Above Contact Is 15 & 14
 *********** Create Contact "Bonded - _6201-2Z_PART1|_6201-2Z_PART1 To _6201-2Z_
             Real Constant Set For Above Contact Is 17 & 16
 *********** Create Contact "Bonded - _6201-2Z_PART1|_6201-2Z_PART1 To _6201-2Z_
             Real Constant Set For Above Contact Is 19 & 18
 *********** Create Contact "Bonded - _6201-2Z_PART1|_6201-2Z_PART1 To _6201-2Z_
             Real Constant Set For Above Contact Is 21 & 20
 *********** Create Contact "Bonded - _6201-2Z_PART1|_6201-2Z_PART1 To _6201-2Z_
             Real Constant Set For Above Contact Is 23 & 22
 *********** Create Contact "Bonded - _6201-2Z_PART2|_6201-2Z_PART2 To _6201-2Z_
             Real Constant Set For Above Contact Is 25 & 24
 *********** Create Contact "Bonded - _6201-2Z_PART2|_6201-2Z_PART2 To _6201-2Z_
             Real Constant Set For Above Contact Is 27 & 26
 *********** Create Contact "Bonded - _6201-2Z_PART2|_6201-2Z_PART2 To _6201-2Z_
             Real Constant Set For Above Contact Is 29 & 28
 *********** Create Contact "Bonded - _6201-2Z_PART2|_6201-2Z_PART2 To _6201-2Z_
             Real Constant Set For Above Contact Is 31 & 30
 *********** Create Contact "Bonded - _6201-2Z_PART2|_6201-2Z_PART2 To _6201-2Z_
             Real Constant Set For Above Contact Is 33 & 32
 *********** Create Contact "Bonded - _6201-2Z_PART2|_6201-2Z_PART2 To _6201-2Z_
             Real Constant Set For Above Contact Is 35 & 34
 *********** Create Contact "Bonded - _6201-2Z_PART2|_6201-2Z_PART2 To _6201-2Z_
             Real Constant Set For Above Contact Is 37 & 36
 *********** Fixed Supports ***********
 *********** Create Bearing Load ***********


 ***** ROUTINE COMPLETED *****  CP =         1.031


 --- Number of total nodes = 50865
 --- Number of contact elements = 3762
 --- Number of spring elements = 0
 --- Number of bearing elements = 0
 --- Number of solid elements = 28713
 --- Number of condensed parts = 0
 --- Number of total elements = 32475

 *GET  _WALLBSOL  FROM  ACTI  ITEM=TIME WALL  VALUE=  23.4291667    
 ****************************************************************************
 *************************    SOLUTION       ********************************
 ****************************************************************************

 *****  ANSYS SOLUTION ROUTINE  *****


 PERFORM A STATIC ANALYSIS
  THIS WILL BE A NEW ANALYSIS

 PARAMETER _THICKRATIO =    0.8890000000    

 USE PRECONDITIONED CONJUGATE GRADIENT SOLVER
  CONVERGENCE TOLERANCE = 1.00000E-08
  MAXIMUM ITERATION     = NumNode*DofPerNode*  1.0000    

 CONTACT INFORMATION PRINTOUT LEVEL       1

 DO NOT COMBINE ELEMENT MATRIX FILES (.emat) AFTER DISTRIBUTED PARALLEL SOLUTION

 DO NOT COMBINE ELEMENT SAVE DATA FILES (.esav) AFTER DISTRIBUTED PARALLEL SOLUTION

 NLDIAG: Nonlinear diagnostics CONT option is set to ON. 
         Writing frequency : each ITERATION.

 DO NOT SAVE ANY RESTART FILES AT ALL
 ****************************************************
 ******************* SOLVE FOR LS 1 OF 1 ****************

 SELECT       FOR ITEM=TYPE COMPONENT=    
  IN RANGE        38 TO         38 STEP          1

       1080  ELEMENTS (OF      32475  DEFINED) SELECTED BY  ESEL  COMMAND.

 SPECIFIED SURFACE LOAD PRES FOR ALL SELECTED ELEMENTS  LKEY =  5   KVAL = 1
     VALUES =     0.0000         1.0000         0.0000         0.0000    

 COORDINATE SYSTEM         11 DEFINITION.  TYPE= 0  (CARTESIAN)  
   XC,YC,ZC=  0.0000      0.0000      0.0000    
   ANGLES=  -90.00    0.00    0.00   PARAMETERS=   1.000   1.000
   ORIENTATION=  0.00 -1.00  0.00   1.00  0.00  0.00   0.00  0.00  1.00

 ACTIVE COORDINATE SYSTEM SET TO        11  (CARTESIAN)  

 ACTIVE COORDINATE SYSTEM SET TO          0  (CARTESIAN)  

 PARAMETER _V1 =     0.000000000    

 PARAMETER _V2 =    -1.000000000    

 PARAMETER _V3 =     0.000000000    

 *GET  _NECURR   FROM  ELEM  ITEM=COUN           VALUE=  1080.00000    

 PARAMETER _ECURR =     0.000000000    

 PARAMETER _TOTAL =     0.000000000    

 *DO LOOP ON PARAMETER= _I FROM  1.0000     TO  1080.0     BY  1.0000    

 PARAMETER _ECURR =     43102.00000    

 PARAMETER _NORMX =    0.4285059904E-01

 PARAMETER _NORMY =   -0.5730496014    

 PARAMETER _NORMZ =   -0.8183996459    

 PARAMETER _NORMMAG =     1.000000000    

 PARAMETER _NORMX =    0.4285059904E-01

 PARAMETER _NORMY =   -0.5730496014    

 PARAMETER _NORMZ =   -0.8183996459    

 PARAMETER _DOT =    0.5730496014    

 *IF  _dot                              ( =  0.573050     )  GT  
      -.00001                           ( = -0.100000E-04 )  THEN    

 UNSELECT     FOR ITEM=ELEM COMPONENT=    
  IN RANGE     43102 TO      43102 STEP          1

       1079  ELEMENTS (OF      32475  DEFINED) SELECTED BY  ESEL  COMMAND.

 *ELSE

 *ENDIF

 *ENDDO  INDEX= _I                              

 *GET  _NECURR   FROM  ELEM  ITEM=COUN           VALUE=  541.000000    

 *IF  _necurr                           ( =   541.000     )  EQ  
      0                                 ( =   0.00000     )  THEN    

 *ENDIF

 PARAMETER _MAG =     1000.000000    

 PARAMETER _MAG =     9484568.266    

 SPECIFIED SURFACE LOAD PRES FOR ALL SELECTED ELEMENTS  LKEY =  5   KVAL = 1
     VALUES =    0.94846E+07     0.0000        -1000.0         0.0000    

 ALL SELECT   FOR ITEM=NODE COMPONENT=    
  IN RANGE         1 TO      50865 STEP          1

      50865  NODES (OF      50865  DEFINED) SELECTED BY NSEL  COMMAND.

 ALL SELECT   FOR ITEM=ELEM COMPONENT=    
  IN RANGE         1 TO      44181 STEP          1

      32475  ELEMENTS (OF      32475  DEFINED) SELECTED BY  ESEL  COMMAND.

 PRINTOUT RESUMED BY /GOP

 USE       1 SUBSTEPS INITIALLY THIS LOAD STEP FOR ALL  DEGREES OF FREEDOM
 FOR AUTOMATIC TIME STEPPING:
   USE      1 SUBSTEPS AS A MAXIMUM
   USE      1 SUBSTEPS AS A MINIMUM

 TIME=  1.0000    

 ERASE THE CURRENT DATABASE OUTPUT CONTROL TABLE.


 WRITE ALL  ITEMS TO THE DATABASE WITH A FREQUENCY OF NONE
   FOR ALL APPLICABLE ENTITIES

 WRITE NSOL ITEMS TO THE DATABASE WITH A FREQUENCY OF ALL 
   FOR ALL APPLICABLE ENTITIES

 WRITE RSOL ITEMS TO THE DATABASE WITH A FREQUENCY OF ALL 
   FOR ALL APPLICABLE ENTITIES

 WRITE EANG ITEMS TO THE DATABASE WITH A FREQUENCY OF ALL 
   FOR ALL APPLICABLE ENTITIES

 WRITE ETMP ITEMS TO THE DATABASE WITH A FREQUENCY OF ALL 
   FOR ALL APPLICABLE ENTITIES

 WRITE VENG ITEMS TO THE DATABASE WITH A FREQUENCY OF ALL 
   FOR ALL APPLICABLE ENTITIES

 WRITE STRS ITEMS TO THE DATABASE WITH A FREQUENCY OF ALL 
   FOR ALL APPLICABLE ENTITIES

 WRITE EPEL ITEMS TO THE DATABASE WITH A FREQUENCY OF ALL 
   FOR ALL APPLICABLE ENTITIES

 WRITE EPPL ITEMS TO THE DATABASE WITH A FREQUENCY OF ALL 
   FOR ALL APPLICABLE ENTITIES

 WRITE CONT ITEMS TO THE DATABASE WITH A FREQUENCY OF ALL 
   FOR ALL APPLICABLE ENTITIES

 *GET  ANSINTER_  FROM  ACTI  ITEM=INT        VALUE=  0.00000000    

 *IF  ANSINTER_                         ( =   0.00000     )  NE  
      0                                 ( =   0.00000     )  THEN    

 *ENDIF

 *** NOTE ***                            CP =       1.391   TIME= 23:25:45
 The automatic domain decomposition logic has selected the MESH domain   
 decomposition method with 2 processes per solution.                     

 *****  ANSYS SOLVE    COMMAND  *****

 *** WARNING ***                         CP =       1.391   TIME= 23:25:45
 Element shape checking is currently inactive.  Issue SHPP,ON or         
 SHPP,WARN to reactivate, if desired.                                    

 *** NOTE ***                            CP =       1.672   TIME= 23:25:45
 The model data was checked and warning messages were found.             
  Please review output or errors file (                                  
 C:\Users\vinig\Desktop\codes\TCC-assets\programas\ansys-bearing\_Projec 
 ctScratch\ScrB469\file0.err ) for these warning messages.               

 *** SELECTION OF ELEMENT TECHNOLOGIES FOR APPLICABLE ELEMENTS ***
      --- GIVE SUGGESTIONS AND RESET THE KEY OPTIONS ---

 ELEMENT TYPE         1 IS SOLID187. IT IS NOT ASSOCIATED WITH FULLY INCOMPRESSIBLE
 HYPERELASTIC MATERIALS. NO SUGGESTION IS AVAILABLE AND NO RESETTING IS NEEDED.

 ELEMENT TYPE         2 IS SOLID187. IT IS NOT ASSOCIATED WITH FULLY INCOMPRESSIBLE
 HYPERELASTIC MATERIALS. NO SUGGESTION IS AVAILABLE AND NO RESETTING IS NEEDED.

 ELEMENT TYPE         3 IS SOLID187. IT IS NOT ASSOCIATED WITH FULLY INCOMPRESSIBLE
 HYPERELASTIC MATERIALS. NO SUGGESTION IS AVAILABLE AND NO RESETTING IS NEEDED.

 ELEMENT TYPE         4 IS SOLID187. IT IS NOT ASSOCIATED WITH FULLY INCOMPRESSIBLE
 HYPERELASTIC MATERIALS. NO SUGGESTION IS AVAILABLE AND NO RESETTING IS NEEDED.

 ELEMENT TYPE         5 IS SOLID187. IT IS NOT ASSOCIATED WITH FULLY INCOMPRESSIBLE
 HYPERELASTIC MATERIALS. NO SUGGESTION IS AVAILABLE AND NO RESETTING IS NEEDED.

 ELEMENT TYPE         6 IS SOLID187. IT IS NOT ASSOCIATED WITH FULLY INCOMPRESSIBLE
 HYPERELASTIC MATERIALS. NO SUGGESTION IS AVAILABLE AND NO RESETTING IS NEEDED.

 ELEMENT TYPE         7 IS SOLID187. IT IS NOT ASSOCIATED WITH FULLY INCOMPRESSIBLE
 HYPERELASTIC MATERIALS. NO SUGGESTION IS AVAILABLE AND NO RESETTING IS NEEDED.

 ELEMENT TYPE         8 IS SOLID187. IT IS NOT ASSOCIATED WITH FULLY INCOMPRESSIBLE
 HYPERELASTIC MATERIALS. NO SUGGESTION IS AVAILABLE AND NO RESETTING IS NEEDED.

 ELEMENT TYPE         9 IS SOLID187. IT IS NOT ASSOCIATED WITH FULLY INCOMPRESSIBLE
 HYPERELASTIC MATERIALS. NO SUGGESTION IS AVAILABLE AND NO RESETTING IS NEEDED.



 *** ANSYS - ENGINEERING ANALYSIS SYSTEM  RELEASE 2021 R1          21.1     ***
 DISTRIBUTED ANSYS Mechanical Enterprise Academic Student      

 00000000  VERSION=WINDOWS x64   23:25:46  MAR 04, 2021 CP=      1.672

 bearing-stiffness--Static Structural (A5)                                     



                       S O L U T I O N   O P T I O N S

   PROBLEM DIMENSIONALITY. . . . . . . . . . . . .3-D                  
   DEGREES OF FREEDOM. . . . . . UX   UY   UZ  
   ANALYSIS TYPE . . . . . . . . . . . . . . . . .STATIC (STEADY-STATE)
   OFFSET TEMPERATURE FROM ABSOLUTE ZERO . . . . .  273.15    
   EQUATION SOLVER OPTION. . . . . . . . . . . . .PCG                
      TOLERANCE. . . . . . . . . . . . . . . . . . 1.00000E-08
   GLOBALLY ASSEMBLED MATRIX . . . . . . . . . . .SYMMETRIC  

 *** WARNING ***                         CP =       1.734   TIME= 23:25:46
 Material number 38 (used by element 43102) should normally have at      
 least one MP or one TB type command associated with it.  Output of      
 energy by material may not be available.                                

 *** NOTE ***                            CP =       1.734   TIME= 23:25:46
 The step data was checked and warning messages were found.              
  Please review output or errors file (                                  
 C:\Users\vinig\Desktop\codes\TCC-assets\programas\ansys-bearing\_Projec 
 ctScratch\ScrB469\file0.err ) for these warning messages.               

 *** NOTE ***                            CP =       1.734   TIME= 23:25:46
 The conditions for direct assembly have been met.  No .emat or .erot    
 files will be produced.                                                 

 *** NOTE ***                            CP =       1.906   TIME= 23:25:46
 Symmetric Deformable- deformable contact pair identified by real        
 constant set 10 and contact element type 10 has been set up.  The       
 companion pair has real constant set ID 11.  Both pairs should have     
 the same behavior.                                                      
 ANSYS will keep the current pair and deactivate its companion pair,     
 resulting in asymmetric contact.                                        
 Linear contact is defined
 Contact algorithm: Augmented Lagrange method
 Contact detection at: Gauss integration point
 Contact stiffness factor FKN                  10.000    
 The resulting initial contact stiffness      0.30735E+17
 Default penetration tolerance factor FTOLN   0.10000    
 The resulting penetration tolerance          0.63730E-04
 Default opening contact stiffness OPSF will be used.
 Default tangent stiffness factor FKT          1.0000    
 Use constant contact stiffness
 Default Max. friction stress TAUMAX          0.10000E+21
 Average contact surface length               0.98948E-03
 Average contact pair depth                   0.63730E-03
 Default pinball region factor PINB           0.25000    
 *WARNING*: The default pinball radius may be too small to capture       
 contacting zone under small sliding assumption.  Redefine the pinball   
 radius if necessary.                                                    
 The resulting pinball region                 0.15932E-03
 Initial penetration/gap is excluded.
 Bonded contact (always) is defined.

 *** NOTE ***                            CP =       1.906   TIME= 23:25:46
 Max.  Initial penetration 2.851499653E-07 was detected between contact  
 element 40503 and target element 40630.                                 
 You may move entire target surface by : x= 2.095483973E-07, y=          
 1.933906822E-07, z= 1.262086452E-10,to reduce initial penetration.      
  
 Max.  Geometric gap 1.549256023E-04 has been detected between contact   
 element 40498 and target element 40648.                                 
 *WARNING*: The geometric gap/penetration may be too large.  Increase    
 pinball radius if it is a true geometric gap/penetration.  Decrease     
 pinball if it is a false one.                                           
 ****************************************
  

 *** NOTE ***                            CP =       1.906   TIME= 23:25:46
 Symmetric Deformable- deformable contact pair identified by real        
 constant set 11 and contact element type 10 has been set up.  The       
 companion pair has real constant set ID 10.  Both pairs should have     
 the same behavior.                                                      
 ANSYS will deactivate the current pair and keep its companion pair,     
 resulting in asymmetric contact.                                        
 Linear contact is defined
 Contact algorithm: Augmented Lagrange method
 Contact detection at: Gauss integration point
 Contact stiffness factor FKN                  10.000    
 The resulting initial contact stiffness      0.30735E+17
 Default penetration tolerance factor FTOLN   0.10000    
 The resulting penetration tolerance          0.13014E-03
 Default opening contact stiffness OPSF will be used.
 Default tangent stiffness factor FKT          1.0000    
 Use constant contact stiffness
 Default Max. friction stress TAUMAX          0.10000E+21
 Average contact surface length               0.14248E-02
 Average contact pair depth                   0.13014E-02
 Default pinball region factor PINB           0.25000    
 *WARNING*: The default pinball radius may be too small to capture       
 contacting zone under small sliding assumption.  Redefine the pinball   
 radius if necessary.                                                    
 The resulting pinball region                 0.32536E-03
 Initial penetration/gap is excluded.
 Bonded contact (always) is defined.

 *** NOTE ***                            CP =       1.906   TIME= 23:25:46
 Max.  Initial penetration 1.320897314E-07 was detected between contact  
 element 40585 and target element 40425.                                 
 You may move entire target surface by : x= -9.335620294E-08, y=         
 -9.344585963E-08, z= 4.334002415E-10,to reduce initial penetration.     
  
 Max.  Geometric gap 2.584916572E-04 has been detected between contact   
 element 40593 and target element 40490.                                 
 *WARNING*: The geometric gap/penetration may be too large.  Increase    
 pinball radius if it is a true geometric gap/penetration.  Decrease     
 pinball if it is a false one.                                           
 ****************************************
  

 *** NOTE ***                            CP =       1.906   TIME= 23:25:46
 Symmetric Deformable- deformable contact pair identified by real        
 constant set 12 and contact element type 12 has been set up.  The       
 companion pair has real constant set ID 13.  Both pairs should have     
 the same behavior.                                                      
 ANSYS will keep the current pair and deactivate its companion pair,     
 resulting in asymmetric contact.                                        
 Linear contact is defined
 Contact algorithm: Augmented Lagrange method
 Contact detection at: Gauss integration point
 Contact stiffness factor FKN                  10.000    
 The resulting initial contact stiffness      0.31877E+17
 Default penetration tolerance factor FTOLN   0.10000    
 The resulting penetration tolerance          0.59396E-04
 Default opening contact stiffness OPSF will be used.
 Default tangent stiffness factor FKT          1.0000    
 Use constant contact stiffness
 Default Max. friction stress TAUMAX          0.10000E+21
 Average contact surface length               0.10421E-02
 Average contact pair depth                   0.59396E-03
 Default pinball region factor PINB           0.25000    
 *WARNING*: The default pinball radius may be too small to capture       
 contacting zone under small sliding assumption.  Redefine the pinball   
 radius if necessary.                                                    
 The resulting pinball region                 0.14849E-03
 Initial penetration/gap is excluded.
 Bonded contact (always) is defined.

 *** NOTE ***                            CP =       1.906   TIME= 23:25:46
 Max.  Initial penetration 6.982144174E-07 was detected between contact  
 element 40734 and target element 40858.                                 
 You may move entire target surface by : x= 5.056790431E-07, y=          
 2.995825188E-07, z= -3.768851183E-07,to reduce initial penetration.     
  
 Max.  Geometric gap 1.477314503E-04 has been detected between contact   
 element 40746 and target element 40867.                                 
 *WARNING*: The geometric gap/penetration may be too large.  Increase    
 pinball radius if it is a true geometric gap/penetration.  Decrease     
 pinball if it is a false one.                                           
 ****************************************
  

 *** NOTE ***                            CP =       1.906   TIME= 23:25:46
 Symmetric Deformable- deformable contact pair identified by real        
 constant set 13 and contact element type 12 has been set up.  The       
 companion pair has real constant set ID 12.  Both pairs should have     
 the same behavior.                                                      
 ANSYS will deactivate the current pair and keep its companion pair,     
 resulting in asymmetric contact.                                        
 Linear contact is defined
 Contact algorithm: Augmented Lagrange method
 Contact detection at: Gauss integration point
 Contact stiffness factor FKN                  10.000    
 The resulting initial contact stiffness      0.31877E+17
 Default penetration tolerance factor FTOLN   0.10000    
 The resulting penetration tolerance          0.12548E-03
 Default opening contact stiffness OPSF will be used.
 Default tangent stiffness factor FKT          1.0000    
 Use constant contact stiffness
 Default Max. friction stress TAUMAX          0.10000E+21
 Average contact surface length               0.13976E-02
 Average contact pair depth                   0.12548E-02
 Default pinball region factor PINB           0.25000    
 *WARNING*: The default pinball radius may be too small to capture       
 contacting zone under small sliding assumption.  Redefine the pinball   
 radius if necessary.                                                    
 The resulting pinball region                 0.31371E-03
 Initial penetration/gap is excluded.
 Bonded contact (always) is defined.

 *** NOTE ***                            CP =       1.906   TIME= 23:25:46
 Max.  Initial penetration 6.790090146E-07 was detected between contact  
 element 40805 and target element 40670.                                 
 You may move entire target surface by : x= -4.798987988E-07, y=         
 -2.977575187E-07, z= 3.769493931E-07,to reduce initial penetration.     
  
 Max.  Geometric gap 2.589405315E-04 has been detected between contact   
 element 40814 and target element 40703.                                 
 *WARNING*: The geometric gap/penetration may be too large.  Increase    
 pinball radius if it is a true geometric gap/penetration.  Decrease     
 pinball if it is a false one.                                           
 ****************************************
  

 *** NOTE ***                            CP =       1.906   TIME= 23:25:46
 Symmetric Deformable- deformable contact pair identified by real        
 constant set 14 and contact element type 14 has been set up.  The       
 companion pair has real constant set ID 15.  Both pairs should have     
 the same behavior.                                                      
 ANSYS will keep the current pair and deactivate its companion pair,     
 resulting in asymmetric contact.                                        
 Linear contact is defined
 Contact algorithm: Augmented Lagrange method
 Contact detection at: Gauss integration point
 Contact stiffness factor FKN                  10.000    
 The resulting initial contact stiffness      0.30786E+17
 Default penetration tolerance factor FTOLN   0.10000    
 The resulting penetration tolerance          0.70551E-04
 Default opening contact stiffness OPSF will be used.
 Default tangent stiffness factor FKT          1.0000    
 Use constant contact stiffness
 Default Max. friction stress TAUMAX          0.10000E+21
 Average contact surface length               0.97377E-03
 Average contact pair depth                   0.70551E-03
 Default pinball region factor PINB           0.25000    
 *WARNING*: The default pinball radius may be too small to capture       
 contacting zone under small sliding assumption.  Redefine the pinball   
 radius if necessary.                                                    
 The resulting pinball region                 0.17638E-03
 Initial penetration/gap is excluded.
 Bonded contact (always) is defined.

 *** NOTE ***                            CP =       1.906   TIME= 23:25:46
 Min.  Initial gap 4.712184482E-07 was detected between contact element  
 40985 and target element 41123.                                         
 The gap is closed due to initial settings.                              
  
 Max.  Geometric gap 1.718893951E-04 has been detected between contact   
 element 41004 and target element 41143.                                 
 *WARNING*: The geometric gap/penetration may be too large.  Increase    
 pinball radius if it is a true geometric gap/penetration.  Decrease     
 pinball if it is a false one.                                           
 ****************************************
  

 *** NOTE ***                            CP =       1.906   TIME= 23:25:46
 Symmetric Deformable- deformable contact pair identified by real        
 constant set 15 and contact element type 14 has been set up.  The       
 companion pair has real constant set ID 14.  Both pairs should have     
 the same behavior.                                                      
 ANSYS will deactivate the current pair and keep its companion pair,     
 resulting in asymmetric contact.                                        
 Linear contact is defined
 Contact algorithm: Augmented Lagrange method
 Contact detection at: Gauss integration point
 Contact stiffness factor FKN                  10.000    
 The resulting initial contact stiffness      0.30786E+17
 Default penetration tolerance factor FTOLN   0.10000    
 The resulting penetration tolerance          0.12993E-03
 Default opening contact stiffness OPSF will be used.
 Default tangent stiffness factor FKT          1.0000    
 Use constant contact stiffness
 Default Max. friction stress TAUMAX          0.10000E+21
 Average contact surface length               0.14206E-02
 Average contact pair depth                   0.12993E-02
 Default pinball region factor PINB           0.25000    
 *WARNING*: The default pinball radius may be too small to capture       
 contacting zone under small sliding assumption.  Redefine the pinball   
 radius if necessary.                                                    
 The resulting pinball region                 0.32482E-03
 Initial penetration/gap is excluded.
 Bonded contact (always) is defined.

 *** NOTE ***                            CP =       1.906   TIME= 23:25:46
 Min.  Initial gap 8.800508317E-07 was detected between contact element  
 41067 and target element 40972.                                         
 The gap is closed due to initial settings.                              
  
 Max.  Geometric gap 2.589754398E-04 has been detected between contact   
 element 41077 and target element 40928.                                 
 *WARNING*: The geometric gap/penetration may be too large.  Increase    
 pinball radius if it is a true geometric gap/penetration.  Decrease     
 pinball if it is a false one.                                           
 ****************************************
  

 *** NOTE ***                            CP =       1.906   TIME= 23:25:46
 Symmetric Deformable- deformable contact pair identified by real        
 constant set 16 and contact element type 16 has been set up.  The       
 companion pair has real constant set ID 17.  Both pairs should have     
 the same behavior.                                                      
 ANSYS will keep the current pair and deactivate its companion pair,     
 resulting in asymmetric contact.                                        
 Linear contact is defined
 Contact algorithm: Augmented Lagrange method
 Contact detection at: Gauss integration point
 Contact stiffness factor FKN                  10.000    
 The resulting initial contact stiffness      0.31482E+17
 Default penetration tolerance factor FTOLN   0.10000    
 The resulting penetration tolerance          0.61431E-04
 Default opening contact stiffness OPSF will be used.
 Default tangent stiffness factor FKT          1.0000    
 Use constant contact stiffness
 Default Max. friction stress TAUMAX          0.10000E+21
 Average contact surface length               0.10047E-02
 Average contact pair depth                   0.61431E-03
 Default pinball region factor PINB           0.25000    
 *WARNING*: The default pinball radius may be too small to capture       
 contacting zone under small sliding assumption.  Redefine the pinball   
 radius if necessary.                                                    
 The resulting pinball region                 0.15358E-03
 Initial penetration/gap is excluded.
 Bonded contact (always) is defined.

 *** NOTE ***                            CP =       1.906   TIME= 23:25:46
 Max.  Initial penetration 8.690632606E-07 was detected between contact  
 element 41235 and target element 41358.                                 
 You may move entire target surface by : x= 6.341969055E-07, y=          
 -5.353493297E-07, z= -2.578106498E-07,to reduce initial penetration.    
  
 Max.  Geometric gap 1.522485984E-04 has been detected between contact   
 element 41271 and target element 41367.                                 
 *WARNING*: The geometric gap/penetration may be too large.  Increase    
 pinball radius if it is a true geometric gap/penetration.  Decrease     
 pinball if it is a false one.                                           
 ****************************************
  

 *** NOTE ***                            CP =       1.906   TIME= 23:25:46
 Symmetric Deformable- deformable contact pair identified by real        
 constant set 17 and contact element type 16 has been set up.  The       
 companion pair has real constant set ID 16.  Both pairs should have     
 the same behavior.                                                      
 ANSYS will deactivate the current pair and keep its companion pair,     
 resulting in asymmetric contact.                                        
 Linear contact is defined
 Contact algorithm: Augmented Lagrange method
 Contact detection at: Gauss integration point
 Contact stiffness factor FKN                  10.000    
 The resulting initial contact stiffness      0.31482E+17
 Default penetration tolerance factor FTOLN   0.10000    
 The resulting penetration tolerance          0.12705E-03
 Default opening contact stiffness OPSF will be used.
 Default tangent stiffness factor FKT          1.0000    
 Use constant contact stiffness
 Default Max. friction stress TAUMAX          0.10000E+21
 Average contact surface length               0.14007E-02
 Average contact pair depth                   0.12705E-02
 Default pinball region factor PINB           0.25000    
 *WARNING*: The default pinball radius may be too small to capture       
 contacting zone under small sliding assumption.  Redefine the pinball   
 radius if necessary.                                                    
 The resulting pinball region                 0.31764E-03
 Initial penetration/gap is excluded.
 Bonded contact (always) is defined.

 *** NOTE ***                            CP =       1.906   TIME= 23:25:46
 Max.  Initial penetration 7.929982873E-07 was detected between contact  
 element 41309 and target element 41162.                                 
 You may move entire target surface by : x= -5.604622582E-07, y=         
 5.065729201E-07, z= 2.410647577E-07,to reduce initial penetration.      
  
 Max.  Geometric gap 2.586982612E-04 has been detected between contact   
 element 41318 and target element 41186.                                 
 *WARNING*: The geometric gap/penetration may be too large.  Increase    
 pinball radius if it is a true geometric gap/penetration.  Decrease     
 pinball if it is a false one.                                           
 ****************************************
  

 *** NOTE ***                            CP =       1.906   TIME= 23:25:46
 Symmetric Deformable- deformable contact pair identified by real        
 constant set 18 and contact element type 18 has been set up.  The       
 companion pair has real constant set ID 19.  Both pairs should have     
 the same behavior.                                                      
 ANSYS will keep the current pair and deactivate its companion pair,     
 resulting in asymmetric contact.                                        
 Linear contact is defined
 Contact algorithm: Augmented Lagrange method
 Contact detection at: Gauss integration point
 Contact stiffness factor FKN                  10.000    
 The resulting initial contact stiffness      0.31064E+17
 Default penetration tolerance factor FTOLN   0.10000    
 The resulting penetration tolerance          0.72854E-04
 Default opening contact stiffness OPSF will be used.
 Default tangent stiffness factor FKT          1.0000    
 Use constant contact stiffness
 Default Max. friction stress TAUMAX          0.10000E+21
 Average contact surface length               0.98078E-03
 Average contact pair depth                   0.72854E-03
 Default pinball region factor PINB           0.25000    
 *WARNING*: The default pinball radius may be too small to capture       
 contacting zone under small sliding assumption.  Redefine the pinball   
 radius if necessary.                                                    
 The resulting pinball region                 0.18213E-03
 Initial penetration/gap is excluded.
 Bonded contact (always) is defined.

 *** NOTE ***                            CP =       1.906   TIME= 23:25:46
 Min.  Initial gap 1.632588751E-07 was detected between contact element  
 41470 and target element 41607.                                         
 The gap is closed due to initial settings.                              
  
 Max.  Geometric gap 1.806843401E-04 has been detected between contact   
 element 41492 and target element 41608.                                 
 *WARNING*: The geometric gap/penetration may be too large.  Increase    
 pinball radius if it is a true geometric gap/penetration.  Decrease     
 pinball if it is a false one.                                           
 ****************************************
  

 *** NOTE ***                            CP =       1.906   TIME= 23:25:46
 Symmetric Deformable- deformable contact pair identified by real        
 constant set 19 and contact element type 18 has been set up.  The       
 companion pair has real constant set ID 18.  Both pairs should have     
 the same behavior.                                                      
 ANSYS will deactivate the current pair and keep its companion pair,     
 resulting in asymmetric contact.                                        
 Linear contact is defined
 Contact algorithm: Augmented Lagrange method
 Contact detection at: Gauss integration point
 Contact stiffness factor FKN                  10.000    
 The resulting initial contact stiffness      0.31064E+17
 Default penetration tolerance factor FTOLN   0.10000    
 The resulting penetration tolerance          0.12877E-03
 Default opening contact stiffness OPSF will be used.
 Default tangent stiffness factor FKT          1.0000    
 Use constant contact stiffness
 Default Max. friction stress TAUMAX          0.10000E+21
 Average contact surface length               0.14003E-02
 Average contact pair depth                   0.12877E-02
 Default pinball region factor PINB           0.25000    
 *WARNING*: The default pinball radius may be too small to capture       
 contacting zone under small sliding assumption.  Redefine the pinball   
 radius if necessary.                                                    
 The resulting pinball region                 0.32192E-03
 Initial penetration/gap is excluded.
 Bonded contact (always) is defined.

 *** NOTE ***                            CP =       1.906   TIME= 23:25:46
 Min.  Initial gap 5.745718003E-07 was detected between contact element  
 41551 and target element 41454.                                         
 The gap is closed due to initial settings.                              
  
 Max.  Geometric gap 2.585614197E-04 has been detected between contact   
 element 41560 and target element 41466.                                 
 *WARNING*: The geometric gap/penetration may be too large.  Increase    
 pinball radius if it is a true geometric gap/penetration.  Decrease     
 pinball if it is a false one.                                           
 ****************************************
  

 *** NOTE ***                            CP =       1.906   TIME= 23:25:46
 Symmetric Deformable- deformable contact pair identified by real        
 constant set 20 and contact element type 20 has been set up.  The       
 companion pair has real constant set ID 21.  Both pairs should have     
 the same behavior.                                                      
 ANSYS will keep the current pair and deactivate its companion pair,     
 resulting in asymmetric contact.                                        
 Linear contact is defined
 Contact algorithm: Augmented Lagrange method
 Contact detection at: Gauss integration point
 Contact stiffness factor FKN                  10.000    
 The resulting initial contact stiffness      0.30679E+17
 Default penetration tolerance factor FTOLN   0.10000    
 The resulting penetration tolerance          0.70661E-04
 Default opening contact stiffness OPSF will be used.
 Default tangent stiffness factor FKT          1.0000    
 Use constant contact stiffness
 Default Max. friction stress TAUMAX          0.10000E+21
 Average contact surface length               0.10145E-02
 Average contact pair depth                   0.70661E-03
 Default pinball region factor PINB           0.25000    
 *WARNING*: The default pinball radius may be too small to capture       
 contacting zone under small sliding assumption.  Redefine the pinball   
 radius if necessary.                                                    
 The resulting pinball region                 0.17665E-03
 Initial penetration/gap is excluded.
 Bonded contact (always) is defined.

 *** NOTE ***                            CP =       1.906   TIME= 23:25:46
 Max.  Initial penetration 6.925392737E-07 was detected between contact  
 element 41716 and target element 41837.                                 
 You may move entire target surface by : x= 5.04674514E-07, y=           
 -1.060915761E-07, z= 4.622324718E-07,to reduce initial penetration.     
  
 Max.  Geometric gap 1.762592832E-04 has been detected between contact   
 element 41742 and target element 41833.                                 
 *WARNING*: The geometric gap/penetration may be too large.  Increase    
 pinball radius if it is a true geometric gap/penetration.  Decrease     
 pinball if it is a false one.                                           
 ****************************************
  

 *** NOTE ***                            CP =       1.906   TIME= 23:25:46
 Symmetric Deformable- deformable contact pair identified by real        
 constant set 21 and contact element type 20 has been set up.  The       
 companion pair has real constant set ID 20.  Both pairs should have     
 the same behavior.                                                      
 ANSYS will deactivate the current pair and keep its companion pair,     
 resulting in asymmetric contact.                                        
 Linear contact is defined
 Contact algorithm: Augmented Lagrange method
 Contact detection at: Gauss integration point
 Contact stiffness factor FKN                  10.000    
 The resulting initial contact stiffness      0.30679E+17
 Default penetration tolerance factor FTOLN   0.10000    
 The resulting penetration tolerance          0.13038E-03
 Default opening contact stiffness OPSF will be used.
 Default tangent stiffness factor FKT          1.0000    
 Use constant contact stiffness
 Default Max. friction stress TAUMAX          0.10000E+21
 Average contact surface length               0.14306E-02
 Average contact pair depth                   0.13038E-02
 Default pinball region factor PINB           0.25000    
 *WARNING*: The default pinball radius may be too small to capture       
 contacting zone under small sliding assumption.  Redefine the pinball   
 radius if necessary.                                                    
 The resulting pinball region                 0.32596E-03
 Initial penetration/gap is excluded.
 Bonded contact (always) is defined.

 *** NOTE ***                            CP =       1.906   TIME= 23:25:46
 Max.  Initial penetration 6.729496786E-07 was detected between contact  
 element 41793 and target element 41643.                                 
 You may move entire target surface by : x= -4.756162808E-07, y=         
 1.03783561E-07, z= -4.646282339E-07,to reduce initial penetration.      
  
 Max.  Geometric gap 2.585096334E-04 has been detected between contact   
 element 41801 and target element 41706.                                 
 *WARNING*: The geometric gap/penetration may be too large.  Increase    
 pinball radius if it is a true geometric gap/penetration.  Decrease     
 pinball if it is a false one.                                           
 ****************************************
  

 *** NOTE ***                            CP =       1.906   TIME= 23:25:46
 Symmetric Deformable- deformable contact pair identified by real        
 constant set 22 and contact element type 22 has been set up.  The       
 companion pair has real constant set ID 23.  Both pairs should have     
 the same behavior.                                                      
 ANSYS will keep the current pair and deactivate its companion pair,     
 resulting in asymmetric contact.                                        
 Linear contact is defined
 Contact algorithm: Augmented Lagrange method
 Contact detection at: Gauss integration point
 Contact stiffness factor FKN                  10.000    
 The resulting initial contact stiffness      0.32100E+17
 Default penetration tolerance factor FTOLN   0.10000    
 The resulting penetration tolerance          0.68528E-04
 Default opening contact stiffness OPSF will be used.
 Default tangent stiffness factor FKT          1.0000    
 Use constant contact stiffness
 Default Max. friction stress TAUMAX          0.10000E+21
 Average contact surface length               0.10055E-02
 Average contact pair depth                   0.68528E-03
 Default pinball region factor PINB           0.25000    
 *WARNING*: The default pinball radius may be too small to capture       
 contacting zone under small sliding assumption.  Redefine the pinball   
 radius if necessary.                                                    
 The resulting pinball region                 0.17132E-03
 Initial penetration/gap is excluded.
 Bonded contact (always) is defined.

 *** NOTE ***                            CP =       1.906   TIME= 23:25:46
 Max.  Initial penetration 9.589576873E-07 was detected between contact  
 element 41944 and target element 42076.                                 
 You may move entire target surface by : x= 6.97981924E-07, y=           
 4.093804467E-07, z= 5.146151278E-07,to reduce initial penetration.      
  
 Max.  Geometric gap 1.677122126E-04 has been detected between contact   
 element 41971 and target element 42072.                                 
 *WARNING*: The geometric gap/penetration may be too large.  Increase    
 pinball radius if it is a true geometric gap/penetration.  Decrease     
 pinball if it is a false one.                                           
 ****************************************
  

 *** NOTE ***                            CP =       1.906   TIME= 23:25:46
 Symmetric Deformable- deformable contact pair identified by real        
 constant set 23 and contact element type 22 has been set up.  The       
 companion pair has real constant set ID 22.  Both pairs should have     
 the same behavior.                                                      
 ANSYS will deactivate the current pair and keep its companion pair,     
 resulting in asymmetric contact.                                        
 Linear contact is defined
 Contact algorithm: Augmented Lagrange method
 Contact detection at: Gauss integration point
 Contact stiffness factor FKN                  10.000    
 The resulting initial contact stiffness      0.32100E+17
 Default penetration tolerance factor FTOLN   0.10000    
 The resulting penetration tolerance          0.12461E-03
 Default opening contact stiffness OPSF will be used.
 Default tangent stiffness factor FKT          1.0000    
 Use constant contact stiffness
 Default Max. friction stress TAUMAX          0.10000E+21
 Average contact surface length               0.13888E-02
 Average contact pair depth                   0.12461E-02
 Default pinball region factor PINB           0.25000    
 *WARNING*: The default pinball radius may be too small to capture       
 contacting zone under small sliding assumption.  Redefine the pinball   
 radius if necessary.                                                    
 The resulting pinball region                 0.31153E-03
 Initial penetration/gap is excluded.
 Bonded contact (always) is defined.

 *** NOTE ***                            CP =       1.906   TIME= 23:25:46
 Max.  Initial penetration 9.60090152E-07 was detected between contact   
 element 42024 and target element 41873.                                 
 You may move entire target surface by : x= -6.785566917E-07, y=         
 -4.25942376E-07, z= -5.290623862E-07,to reduce initial penetration.     
  
 Max.  Geometric gap 2.587638645E-04 has been detected between contact   
 element 42033 and target element 41885.                                 
 *WARNING*: The geometric gap/penetration may be too large.  Increase    
 pinball radius if it is a true geometric gap/penetration.  Decrease     
 pinball if it is a false one.                                           
 ****************************************
  

 *** NOTE ***                            CP =       1.906   TIME= 23:25:46
 Symmetric Deformable- deformable contact pair identified by real        
 constant set 24 and contact element type 24 has been set up.  The       
 companion pair has real constant set ID 25.  Both pairs should have     
 the same behavior.                                                      
 ANSYS will deactivate the current pair and keep its companion pair,     
 resulting in asymmetric contact.                                        
 Linear contact is defined
 Contact algorithm: Augmented Lagrange method
 Contact detection at: Gauss integration point
 Contact stiffness factor FKN                  10.000    
 The resulting initial contact stiffness      0.28772E+17
 Default penetration tolerance factor FTOLN   0.10000    
 The resulting penetration tolerance          0.13902E-03
 Default opening contact stiffness OPSF will be used.
 Default tangent stiffness factor FKT          1.0000    
 Use constant contact stiffness
 Default Max. friction stress TAUMAX          0.10000E+21
 Average contact surface length               0.31153E-02
 Average contact pair depth                   0.13902E-02
 Default pinball region factor PINB           0.25000    
 *WARNING*: The default pinball radius may be too small to capture       
 contacting zone under small sliding assumption.  Redefine the pinball   
 radius if necessary.                                                    
 The resulting pinball region                 0.34756E-03
 Initial penetration/gap is excluded.
 Bonded contact (always) is defined.

 *** NOTE ***                            CP =       1.906   TIME= 23:25:46
 Max.  Initial penetration 1.897770291E-04 was detected between contact  
 element 42135 and target element 42243.                                 
 You may move entire target surface by : x= 8.639056597E-05, y=          
 -1.662557312E-04, z= -3.018315319E-05,to reduce initial penetration.    
  
 Max.  Geometric gap 3.443126229E-04 has been detected between contact   
 element 42140 and target element 42225.                                 
 *WARNING*: The geometric gap/penetration may be too large.  Increase    
 pinball radius if it is a true geometric gap/penetration.  Decrease     
 pinball if it is a false one.                                           
 ****************************************
  

 *** NOTE ***                            CP =       1.906   TIME= 23:25:46
 Symmetric Deformable- deformable contact pair identified by real        
 constant set 25 and contact element type 24 has been set up.  The       
 companion pair has real constant set ID 24.  Both pairs should have     
 the same behavior.                                                      
 ANSYS will keep the current pair and deactivate its companion pair,     
 resulting in asymmetric contact.                                        
 Linear contact is defined
 Contact algorithm: Augmented Lagrange method
 Contact detection at: Gauss integration point
 Contact stiffness factor FKN                  10.000    
 The resulting initial contact stiffness      0.28772E+17
 Default penetration tolerance factor FTOLN   0.10000    
 The resulting penetration tolerance          0.12843E-03
 Default opening contact stiffness OPSF will be used.
 Default tangent stiffness factor FKT          1.0000    
 Use constant contact stiffness
 Default Max. friction stress TAUMAX          0.10000E+21
 Average contact surface length               0.14363E-02
 Average contact pair depth                   0.12843E-02
 Default pinball region factor PINB           0.25000    
 *WARNING*: The default pinball radius may be too small to capture       
 contacting zone under small sliding assumption.  Redefine the pinball   
 radius if necessary.                                                    
 The resulting pinball region                 0.32109E-03
 Initial penetration/gap is excluded.
 Bonded contact (always) is defined.

 *** NOTE ***                            CP =       1.906   TIME= 23:25:46
 Max.  Initial penetration 2.903298041E-04 was detected between contact  
 element 42190 and target element 42123.                                 
 You may move entire target surface by : x= -1.337619289E-04, y=         
 2.452047515E-04, z= 7.920714232E-05,to reduce initial penetration.      
  
 Max.  Geometric gap 3.17950791E-04 has been detected between contact    
 element 42145 and target element 42127.                                 
 *WARNING*: The geometric gap/penetration may be too large.  Increase    
 pinball radius if it is a true geometric gap/penetration.  Decrease     
 pinball if it is a false one.                                           
 ****************************************
  

 *** NOTE ***                            CP =       1.906   TIME= 23:25:46
 Symmetric Deformable- deformable contact pair identified by real        
 constant set 26 and contact element type 26 has been set up.  The       
 companion pair has real constant set ID 27.  Both pairs should have     
 the same behavior.                                                      
 ANSYS will deactivate the current pair and keep its companion pair,     
 resulting in asymmetric contact.                                        
 Linear contact is defined
 Contact algorithm: Augmented Lagrange method
 Contact detection at: Gauss integration point
 Contact stiffness factor FKN                  10.000    
 The resulting initial contact stiffness      0.25216E+17
 Default penetration tolerance factor FTOLN   0.10000    
 The resulting penetration tolerance          0.15863E-03
 Default opening contact stiffness OPSF will be used.
 Default tangent stiffness factor FKT          1.0000    
 Use constant contact stiffness
 Default Max. friction stress TAUMAX          0.10000E+21
 Average contact surface length               0.30588E-02
 Average contact pair depth                   0.15863E-02
 Default pinball region factor PINB           0.25000    
 *WARNING*: The default pinball radius may be too small to capture       
 contacting zone under small sliding assumption.  Redefine the pinball   
 radius if necessary.                                                    
 The resulting pinball region                 0.39658E-03
 Initial penetration/gap is excluded.
 Bonded contact (always) is defined.

 *** NOTE ***                            CP =       1.906   TIME= 23:25:46
 Min.  Initial gap 4.552828078E-07 was detected between contact element  
 42264 and target element 42373.                                         
 The gap is closed due to initial settings.                              
  
 Max.  Geometric gap 3.906339505E-04 has been detected between contact   
 element 42265 and target element 42356.                                 
 *WARNING*: The geometric gap/penetration may be too large.  Increase    
 pinball radius if it is a true geometric gap/penetration.  Decrease     
 pinball if it is a false one.                                           
 ****************************************
  

 *** NOTE ***                            CP =       1.906   TIME= 23:25:46
 Symmetric Deformable- deformable contact pair identified by real        
 constant set 27 and contact element type 26 has been set up.  The       
 companion pair has real constant set ID 26.  Both pairs should have     
 the same behavior.                                                      
 ANSYS will keep the current pair and deactivate its companion pair,     
 resulting in asymmetric contact.                                        
 Linear contact is defined
 Contact algorithm: Augmented Lagrange method
 Contact detection at: Gauss integration point
 Contact stiffness factor FKN                  10.000    
 The resulting initial contact stiffness      0.25216E+17
 Default penetration tolerance factor FTOLN   0.10000    
 The resulting penetration tolerance          0.12464E-03
 Default opening contact stiffness OPSF will be used.
 Default tangent stiffness factor FKT          1.0000    
 Use constant contact stiffness
 Default Max. friction stress TAUMAX          0.10000E+21
 Average contact surface length               0.13963E-02
 Average contact pair depth                   0.12464E-02
 Default pinball region factor PINB           0.25000    
 *WARNING*: The default pinball radius may be too small to capture       
 contacting zone under small sliding assumption.  Redefine the pinball   
 radius if necessary.                                                    
 The resulting pinball region                 0.31159E-03
 Initial penetration/gap is excluded.
 Bonded contact (always) is defined.

 *** NOTE ***                            CP =       1.906   TIME= 23:25:46
 Max.  Initial penetration 3.607775189E-06 was detected between contact  
 element 42313 and target element 42259.                                 
 You may move entire target surface by : x= 2.611472968E-07, y=          
 2.302033668E-06, z= -2.76558943E-06,to reduce initial penetration.      
  
 Max.  Geometric gap 2.997992339E-04 has been detected between contact   
 element 42300 and target element 42251.                                 
 *WARNING*: The geometric gap/penetration may be too large.  Increase    
 pinball radius if it is a true geometric gap/penetration.  Decrease     
 pinball if it is a false one.                                           
 ****************************************
  

 *** NOTE ***                            CP =       1.906   TIME= 23:25:46
 Symmetric Deformable- deformable contact pair identified by real        
 constant set 28 and contact element type 28 has been set up.  The       
 companion pair has real constant set ID 29.  Both pairs should have     
 the same behavior.                                                      
 ANSYS will deactivate the current pair and keep its companion pair,     
 resulting in asymmetric contact.                                        
 Linear contact is defined
 Contact algorithm: Augmented Lagrange method
 Contact detection at: Gauss integration point
 Contact stiffness factor FKN                  10.000    
 The resulting initial contact stiffness      0.30935E+17
 Default penetration tolerance factor FTOLN   0.10000    
 The resulting penetration tolerance          0.12389E-03
 Default opening contact stiffness OPSF will be used.
 Default tangent stiffness factor FKT          1.0000    
 Use constant contact stiffness
 Default Max. friction stress TAUMAX          0.10000E+21
 Average contact surface length               0.30477E-02
 Average contact pair depth                   0.12389E-02
 Default pinball region factor PINB           0.25000    
 *WARNING*: The default pinball radius may be too small to capture       
 contacting zone under small sliding assumption.  Redefine the pinball   
 radius if necessary.                                                    
 The resulting pinball region                 0.30972E-03
 Initial penetration/gap is excluded.
 Bonded contact (always) is defined.

 *** NOTE ***                            CP =       1.922   TIME= 23:25:46
 Max.  Initial penetration 2.126432203E-04 was detected between contact  
 element 42414 and target element 42498.                                 
 You may move entire target surface by : x= -5.725494127E-05, y=         
 -1.139967351E-05, z= 2.044726346E-04,to reduce initial penetration.     
  
 Max.  Geometric gap 2.864918704E-04 has been detected between contact   
 element 42405 and target element 42509.                                 
 *WARNING*: The geometric gap/penetration may be too large.  Increase    
 pinball radius if it is a true geometric gap/penetration.  Decrease     
 pinball if it is a false one.                                           
 ****************************************
  

 *** NOTE ***                            CP =       1.922   TIME= 23:25:46
 Symmetric Deformable- deformable contact pair identified by real        
 constant set 29 and contact element type 28 has been set up.  The       
 companion pair has real constant set ID 28.  Both pairs should have     
 the same behavior.                                                      
 ANSYS will keep the current pair and deactivate its companion pair,     
 resulting in asymmetric contact.                                        
 Linear contact is defined
 Contact algorithm: Augmented Lagrange method
 Contact detection at: Gauss integration point
 Contact stiffness factor FKN                  10.000    
 The resulting initial contact stiffness      0.30935E+17
 Default penetration tolerance factor FTOLN   0.10000    
 The resulting penetration tolerance          0.12930E-03
 Default opening contact stiffness OPSF will be used.
 Default tangent stiffness factor FKT          1.0000    
 Use constant contact stiffness
 Default Max. friction stress TAUMAX          0.10000E+21
 Average contact surface length               0.14416E-02
 Average contact pair depth                   0.12930E-02
 Default pinball region factor PINB           0.25000    
 *WARNING*: The default pinball radius may be too small to capture       
 contacting zone under small sliding assumption.  Redefine the pinball   
 radius if necessary.                                                    
 The resulting pinball region                 0.32326E-03
 Initial penetration/gap is excluded.
 Bonded contact (always) is defined.

 *** NOTE ***                            CP =       1.922   TIME= 23:25:46
 Max.  Initial penetration 2.999873151E-04 was detected between contact  
 element 42455 and target element 42400.                                 
 You may move entire target surface by : x= 1.66659211E-04, y=           
 1.365722625E-06, z= -2.494298126E-04,to reduce initial penetration.     
  
 Max.  Geometric gap 3.129318242E-04 has been detected between contact   
 element 42442 and target element 42392.                                 
 *WARNING*: The geometric gap/penetration may be too large.  Increase    
 pinball radius if it is a true geometric gap/penetration.  Decrease     
 pinball if it is a false one.                                           
 ****************************************
  

 *** NOTE ***                            CP =       1.922   TIME= 23:25:46
 Symmetric Deformable- deformable contact pair identified by real        
 constant set 30 and contact element type 30 has been set up.  The       
 companion pair has real constant set ID 31.  Both pairs should have     
 the same behavior.                                                      
 ANSYS will keep the current pair and deactivate its companion pair,     
 resulting in asymmetric contact.                                        
 Linear contact is defined
 Contact algorithm: Augmented Lagrange method
 Contact detection at: Gauss integration point
 Contact stiffness factor FKN                  10.000    
 The resulting initial contact stiffness      0.31548E+17
 Default penetration tolerance factor FTOLN   0.10000    
 The resulting penetration tolerance          0.12567E-03
 Default opening contact stiffness OPSF will be used.
 Default tangent stiffness factor FKT          1.0000    
 Use constant contact stiffness
 Default Max. friction stress TAUMAX          0.10000E+21
 Average contact surface length               0.29522E-02
 Average contact pair depth                   0.12567E-02
 Default pinball region factor PINB           0.25000    
 *WARNING*: The default pinball radius may be too small to capture       
 contacting zone under small sliding assumption.  Redefine the pinball   
 radius if necessary.                                                    
 The resulting pinball region                 0.31417E-03
 Initial penetration/gap is excluded.
 Bonded contact (always) is defined.

 *** NOTE ***                            CP =       1.922   TIME= 23:25:46
 Max.  Initial penetration 6.019866162E-06 was detected between contact  
 element 42540 and target element 42644.                                 
 You may move entire target surface by : x= -3.921321233E-06, y=         
 4.128817023E-06, z= 1.953176485E-06,to reduce initial penetration.      
  
 Max.  Geometric gap 2.331701214E-04 has been detected between contact   
 element 42544 and target element 42650.                                 
 *WARNING*: The geometric gap/penetration may be too large.  Increase    
 pinball radius if it is a true geometric gap/penetration.  Decrease     
 pinball if it is a false one.                                           
 ****************************************
  

 *** NOTE ***                            CP =       1.922   TIME= 23:25:46
 Symmetric Deformable- deformable contact pair identified by real        
 constant set 31 and contact element type 30 has been set up.  The       
 companion pair has real constant set ID 30.  Both pairs should have     
 the same behavior.                                                      
 ANSYS will deactivate the current pair and keep its companion pair,     
 resulting in asymmetric contact.                                        
 Linear contact is defined
 Contact algorithm: Augmented Lagrange method
 Contact detection at: Gauss integration point
 Contact stiffness factor FKN                  10.000    
 The resulting initial contact stiffness      0.31548E+17
 Default penetration tolerance factor FTOLN   0.10000    
 The resulting penetration tolerance          0.12679E-03
 Default opening contact stiffness OPSF will be used.
 Default tangent stiffness factor FKT          1.0000    
 Use constant contact stiffness
 Default Max. friction stress TAUMAX          0.10000E+21
 Average contact surface length               0.14144E-02
 Average contact pair depth                   0.12679E-02
 Default pinball region factor PINB           0.25000    
 *WARNING*: The default pinball radius may be too small to capture       
 contacting zone under small sliding assumption.  Redefine the pinball   
 radius if necessary.                                                    
 The resulting pinball region                 0.31698E-03
 Initial penetration/gap is excluded.
 Bonded contact (always) is defined.

 *** NOTE ***                            CP =       1.922   TIME= 23:25:46
 Max.  Initial penetration 5.858517641E-06 was detected between contact  
 element 42585 and target element 42532.                                 
 You may move entire target surface by : x= 4.24066305E-07, y=           
 -5.210152749E-06, z= -2.64512855E-06,to reduce initial penetration.     
  
 Max.  Geometric gap 2.983338642E-04 has been detected between contact   
 element 42574 and target element 42535.                                 
 *WARNING*: The geometric gap/penetration may be too large.  Increase    
 pinball radius if it is a true geometric gap/penetration.  Decrease     
 pinball if it is a false one.                                           
 ****************************************
  

 *** NOTE ***                            CP =       1.922   TIME= 23:25:46
 Symmetric Deformable- deformable contact pair identified by real        
 constant set 32 and contact element type 32 has been set up.  The       
 companion pair has real constant set ID 33.  Both pairs should have     
 the same behavior.                                                      
 ANSYS will keep the current pair and deactivate its companion pair,     
 resulting in asymmetric contact.                                        
 Linear contact is defined
 Contact algorithm: Augmented Lagrange method
 Contact detection at: Gauss integration point
 Contact stiffness factor FKN                  10.000    
 The resulting initial contact stiffness      0.31022E+17
 Default penetration tolerance factor FTOLN   0.10000    
 The resulting penetration tolerance          0.11617E-03
 Default opening contact stiffness OPSF will be used.
 Default tangent stiffness factor FKT          1.0000    
 Use constant contact stiffness
 Default Max. friction stress TAUMAX          0.10000E+21
 Average contact surface length               0.27623E-02
 Average contact pair depth                   0.11617E-02
 Default pinball region factor PINB           0.25000    
 *WARNING*: The default pinball radius may be too small to capture       
 contacting zone under small sliding assumption.  Redefine the pinball   
 radius if necessary.                                                    
 The resulting pinball region                 0.29043E-03
 Initial penetration/gap is excluded.
 Bonded contact (always) is defined.

 *** NOTE ***                            CP =       1.922   TIME= 23:25:46
 Max.  Initial penetration 6.019868818E-06 was detected between contact  
 element 42673 and target element 42785.                                 
 You may move entire target surface by : x= -3.921322962E-06, y=         
 4.101331964E-06, z= -2.010254446E-06,to reduce initial penetration.     
  
 Max.  Geometric gap 2.756677001E-04 has been detected between contact   
 element 42675 and target element 42769.                                 
 *WARNING*: The geometric gap/penetration may be too large.  Increase    
 pinball radius if it is a true geometric gap/penetration.  Decrease     
 pinball if it is a false one.                                           
 ****************************************
  

 *** NOTE ***                            CP =       1.922   TIME= 23:25:46
 Symmetric Deformable- deformable contact pair identified by real        
 constant set 33 and contact element type 32 has been set up.  The       
 companion pair has real constant set ID 32.  Both pairs should have     
 the same behavior.                                                      
 ANSYS will deactivate the current pair and keep its companion pair,     
 resulting in asymmetric contact.                                        
 Linear contact is defined
 Contact algorithm: Augmented Lagrange method
 Contact detection at: Gauss integration point
 Contact stiffness factor FKN                  10.000    
 The resulting initial contact stiffness      0.31022E+17
 Default penetration tolerance factor FTOLN   0.10000    
 The resulting penetration tolerance          0.12894E-03
 Default opening contact stiffness OPSF will be used.
 Default tangent stiffness factor FKT          1.0000    
 Use constant contact stiffness
 Default Max. friction stress TAUMAX          0.10000E+21
 Average contact surface length               0.14293E-02
 Average contact pair depth                   0.12894E-02
 Default pinball region factor PINB           0.25000    
 *WARNING*: The default pinball radius may be too small to capture       
 contacting zone under small sliding assumption.  Redefine the pinball   
 radius if necessary.                                                    
 The resulting pinball region                 0.32235E-03
 Initial penetration/gap is excluded.
 Bonded contact (always) is defined.

 *** NOTE ***                            CP =       1.922   TIME= 23:25:46
 Max.  Initial penetration 3.756927863E-06 was detected between contact  
 element 42724 and target element 42667.                                 
 You may move entire target surface by : x= 2.719436467E-07, y=          
 -3.409358888E-06, z= 1.55461429E-06,to reduce initial penetration.      
  
 Max.  Geometric gap 3.220512709E-04 has been detected between contact   
 element 42689 and target element 42658.                                 
 *WARNING*: The geometric gap/penetration may be too large.  Increase    
 pinball radius if it is a true geometric gap/penetration.  Decrease     
 pinball if it is a false one.                                           
 ****************************************
  

 *** NOTE ***                            CP =       1.922   TIME= 23:25:46
 Symmetric Deformable- deformable contact pair identified by real        
 constant set 34 and contact element type 34 has been set up.  The       
 companion pair has real constant set ID 35.  Both pairs should have     
 the same behavior.                                                      
 ANSYS will deactivate the current pair and keep its companion pair,     
 resulting in asymmetric contact.                                        
 Linear contact is defined
 Contact algorithm: Augmented Lagrange method
 Contact detection at: Gauss integration point
 Contact stiffness factor FKN                  10.000    
 The resulting initial contact stiffness      0.31369E+17
 Default penetration tolerance factor FTOLN   0.10000    
 The resulting penetration tolerance          0.11576E-03
 Default opening contact stiffness OPSF will be used.
 Default tangent stiffness factor FKT          1.0000    
 Use constant contact stiffness
 Default Max. friction stress TAUMAX          0.10000E+21
 Average contact surface length               0.27928E-02
 Average contact pair depth                   0.11576E-02
 Default pinball region factor PINB           0.25000    
 *WARNING*: The default pinball radius may be too small to capture       
 contacting zone under small sliding assumption.  Redefine the pinball   
 radius if necessary.                                                    
 The resulting pinball region                 0.28939E-03
 Initial penetration/gap is excluded.
 Bonded contact (always) is defined.

 *** NOTE ***                            CP =       1.922   TIME= 23:25:46
 Max.  Initial penetration 8.314189149E-06 was detected between contact  
 element 42816 and target element 42931.                                 
 You may move entire target surface by : x= 5.399154028E-06, y=          
 1.432921102E-06, z= -6.158052785E-06,to reduce initial penetration.     
  
 Max.  Geometric gap 2.013782792E-04 has been detected between contact   
 element 42826 and target element 42930.                                 
 *WARNING*: The geometric gap/penetration may be too large.  Increase    
 pinball radius if it is a true geometric gap/penetration.  Decrease     
 pinball if it is a false one.                                           
 ****************************************
  

 *** NOTE ***                            CP =       1.922   TIME= 23:25:46
 Symmetric Deformable- deformable contact pair identified by real        
 constant set 35 and contact element type 34 has been set up.  The       
 companion pair has real constant set ID 34.  Both pairs should have     
 the same behavior.                                                      
 ANSYS will keep the current pair and deactivate its companion pair,     
 resulting in asymmetric contact.                                        
 Linear contact is defined
 Contact algorithm: Augmented Lagrange method
 Contact detection at: Gauss integration point
 Contact stiffness factor FKN                  10.000    
 The resulting initial contact stiffness      0.31369E+17
 Default penetration tolerance factor FTOLN   0.10000    
 The resulting penetration tolerance          0.12752E-03
 Default opening contact stiffness OPSF will be used.
 Default tangent stiffness factor FKT          1.0000    
 Use constant contact stiffness
 Default Max. friction stress TAUMAX          0.10000E+21
 Average contact surface length               0.14277E-02
 Average contact pair depth                   0.12752E-02
 Default pinball region factor PINB           0.25000    
 *WARNING*: The default pinball radius may be too small to capture       
[...]
 There are 35 elements are in sticking.                                  
 Contacting area 9.790312948E-06.                                        
 Max.  Pinball distance 1.713194734E-04.                                 
 One of the contact searching regions contains at least 10 target        
 elements.                                                               
 Max.  Pressure/force -7.16296288.                                       
 Max.  Normal stiffness 3.210001889E+16.                                 
 Min.  Normal stiffness 3.210001889E+16.                                 
 Max.  Tangential stiffness 1.640744311E+16.                             
 Min.  Tangential stiffness 1.640744311E+16.                             
 *************************************************
  
 *************************************************
  SUMMARY FOR CONTACT PAIR IDENTIFIED BY REAL CONSTANT SET          23

 *** NOTE ***                            CP =       4.062   TIME= 23:25:48
 Contact pair is inactive.                                               
  
 *************************************************
  SUMMARY FOR CONTACT PAIR IDENTIFIED BY REAL CONSTANT SET          28

 *** NOTE ***                            CP =       4.062   TIME= 23:25:48
 Contact pair is inactive.                                               
  
 *************************************************
  SUMMARY FOR CONTACT PAIR IDENTIFIED BY REAL CONSTANT SET          29
 Max.  Penetration of -1.819589059E-17 has been detected between contact 
 element 42464 and target element 42397.                                 
  
 Max.  Geometrical gap of 3.129318242E-04 has been detected between      
 contact element 42442 and target element 42392.                         
 *WARNING*: The geometrical gap may be too large.  Increase pinball if   
 it is a true geometrical gap.  Decrease pinball if it is a false one.   
  
 Max.  Geometrical penetration of -2.999873151E-04 has been detected     
 between contact element 42442 and target element 42392.                 
 *WARNING*: The geometrical penetration may be too large.  Increase      
 pinball if it is a true geometrical penetration.  Decrease pinball if   
 it is a false one.                                                      
 For total 54 contact elements, there are 21 elements are in contact.    
 There are 21 elements are in sticking.                                  
 Contacting area 1.493202625E-05.                                        
 Max.  Pinball distance 3.232551693E-04.                                 
 One of the contact searching regions contains at least 11 target        
 elements.                                                               
 Max.  Pressure/force -7.034699.                                         
 Max.  Normal stiffness 3.09353135E+16.                                  
 Min.  Normal stiffness 3.09353135E+16.                                  
 Max.  Tangential stiffness 2.081034088E+16.                             
 Min.  Tangential stiffness 2.081034088E+16.                             
 *************************************************
  
 *************************************************
  SUMMARY FOR CONTACT PAIR IDENTIFIED BY REAL CONSTANT SET          30
 Max.  Penetration of -6.455360052E-17 has been detected between contact 
 element 42544 and target element 42647.                                 
  
 Max.  Geometrical gap of 2.331701214E-04 has been detected between      
 contact element 42544 and target element 42650.                         
 *WARNING*: The geometrical gap may be too large.  Increase pinball if   
 it is a true geometrical gap.  Decrease pinball if it is a false one.   
  
 Max.  Geometrical penetration of -6.019866162E-06 has been detected     
 between contact element 42544 and target element 42650.                 
 For total 12 contact elements, there are 6 elements are in contact.     
 There are 6 elements are in sticking.                                   
 Contacting area 1.714676991E-05.                                        
 Max.  Pinball distance 3.141718349E-04.                                 
 One of the contact searching regions contains at least 24 target        
 elements.                                                               
 Max.  Pressure/force 2.03652957.                                        
 Max.  Normal stiffness 3.154788506E+16.                                 
 Min.  Normal stiffness 3.154788506E+16.                                 
 Max.  Tangential stiffness 1.007195131E+16.                             
 Min.  Tangential stiffness 1.007195131E+16.                             
 *************************************************
  
 *************************************************
  SUMMARY FOR CONTACT PAIR IDENTIFIED BY REAL CONSTANT SET          31

 *** NOTE ***                            CP =       4.062   TIME= 23:25:48
 Contact pair is inactive.                                               


                         ***********  PRECISE MASS SUMMARY  ***********

   TOTAL RIGID BODY MASS MATRIX ABOUT ORIGIN
               Translational mass               |   Coupled translational/rotational mass
        0.36384E-01    0.0000        0.0000     |     0.0000      -0.11858E-06  -0.34014E-06
         0.0000       0.36384E-01    0.0000     |    0.11858E-06    0.0000       0.18190E-03
         0.0000        0.0000       0.36384E-01 |    0.34014E-06  -0.18190E-03    0.0000    
     ------------------------------------------ | ------------------------------------------
                                                |         Rotational mass (inertia)
                                                |    0.55733E-05  -0.12441E-08   0.73223E-09
                                                |   -0.12441E-08   0.39843E-05  -0.80934E-09
                                                |    0.73223E-09  -0.80934E-09   0.39838E-05

   TOTAL MASS = 0.36384E-01
     The mass principal axes coincide with the global Cartesian axes

   CENTER OF MASS (X,Y,Z)=   0.49995E-02   0.93488E-05  -0.32591E-05

   TOTAL INERTIA ABOUT CENTER OF MASS
        0.55733E-05   0.45646E-09   0.13939E-09
        0.45646E-09   0.30749E-05  -0.81045E-09
        0.13939E-09  -0.81045E-09   0.30744E-05
     The inertia principal axes coincide with the global Cartesian axes


  *** MASS SUMMARY BY ELEMENT TYPE ***

  TYPE      MASS
     1  0.116312E-01
     2  0.185441E-01
     3  0.886918E-03
     4  0.886918E-03
     5  0.886918E-03
     6  0.886918E-03
     7  0.886918E-03
     8  0.886918E-03
     9  0.886918E-03

 Range of element maximum matrix coefficients in global coordinates
 Maximum = 3.809360097E+10 at element 42544.                             
 Minimum = 33613119.8 at element 27421.                                  

   *** ELEMENT MATRIX FORMULATION TIMES
     TYPE    NUMBER   ENAME      TOTAL CP  AVE CP

        1     21812  SOLID187      1.781   0.000082
        2      4822  SOLID187      0.391   0.000081
        3       297  SOLID187      0.016   0.000053
        4       297  SOLID187      0.031   0.000105
        5       297  SOLID187      0.031   0.000105
        6       297  SOLID187      0.000   0.000000
        7       297  SOLID187      0.016   0.000053
        8       297  SOLID187      0.031   0.000105
        9       297  SOLID187      0.016   0.000053
       10       123  CONTA174      0.016   0.000127
       11       123  TARGE170      0.000   0.000000
       12       117  CONTA174      0.000   0.000000
       13       117  TARGE170      0.000   0.000000
       14       126  CONTA174      0.000   0.000000
       15       126  TARGE170      0.000   0.000000
       16       122  CONTA174      0.016   0.000128
       17       122  TARGE170      0.000   0.000000
       18       121  CONTA174      0.000   0.000000
       19       121  TARGE170      0.000   0.000000
       20       117  CONTA174      0.000   0.000000
       21       117  TARGE170      0.000   0.000000
       22       123  CONTA174      0.000   0.000000
       23       123  TARGE170      0.000   0.000000
       24        65  CONTA174      0.000   0.000000
       25        65  TARGE170      0.000   0.000000
       26        71  CONTA174      0.000   0.000000
       27        71  TARGE170      0.000   0.000000
       28        68  CONTA174      0.000   0.000000
       29        68  TARGE170      0.000   0.000000
       30        66  CONTA174      0.000   0.000000
       31        66  TARGE170      0.000   0.000000
       32        70  CONTA174      0.000   0.000000
       33        70  TARGE170      0.000   0.000000
       34        70  CONTA174      0.016   0.000223
       35        70  TARGE170      0.000   0.000000
       36        82  CONTA174      0.031   0.000381
       37        82  TARGE170      0.000   0.000000
       38      1080  SURF154       0.047   0.000043
 Time at end of element matrix formulation CP = 4.0625.                  
 Iteration=    10 Ratio=  0.156642     Limit=  1.000000E-08 Wall=     0.1
 Iteration=   135 Ratio=  9.485598E-04 Limit=  1.000000E-08 Wall=     1.5
 Iteration=   565 Ratio=  3.081280E-06 Limit=  1.000000E-08 Wall=     5.9

 DISTRIBUTED PCG SOLVER SOLUTION CONVERGED

 DISTRIBUTED PCG SOLVER SOLUTION STATISTICS

   NUMBER OF ITERATIONS=        1003
   NUMBER OF EQUATIONS =      152595
   LEVEL OF CONVERGENCE=           1
   CALCULATED NORM     = 0.95091E-08
   SPECIFIED TOLERANCE = 0.10000E-07
   TOTAL CPU TIME (sec)=       10.30
   TOTAL WALL TIME(sec)=       10.80
   TOTAL MEMORY (GB)   =        0.07


   *** ELEMENT RESULT CALCULATION TIMES
     TYPE    NUMBER   ENAME      TOTAL CP  AVE CP

        1     21812  SOLID187      1.156   0.000053
        2      4822  SOLID187      0.297   0.000062
        3       297  SOLID187      0.047   0.000158
        4       297  SOLID187      0.047   0.000158
        5       297  SOLID187      0.000   0.000000
        6       297  SOLID187      0.016   0.000053
        7       297  SOLID187      0.016   0.000053
        8       297  SOLID187      0.016   0.000053
        9       297  SOLID187      0.016   0.000053
       10       123  CONTA174      0.000   0.000000
       12       117  CONTA174      0.000   0.000000
       14       126  CONTA174      0.000   0.000000
       16       122  CONTA174      0.000   0.000000
       18       121  CONTA174      0.016   0.000129
       20       117  CONTA174      0.016   0.000134
       22       123  CONTA174      0.000   0.000000
       24        65  CONTA174      0.000   0.000000
       26        71  CONTA174      0.000   0.000000
       28        68  CONTA174      0.016   0.000230
       30        66  CONTA174      0.000   0.000000
       32        70  CONTA174      0.016   0.000223
       34        70  CONTA174      0.000   0.000000
       36        82  CONTA174      0.000   0.000000
       38      1080  SURF154       0.016   0.000014

   *** NODAL LOAD CALCULATION TIMES
     TYPE    NUMBER   ENAME      TOTAL CP  AVE CP

        1     21812  SOLID187      0.297   0.000014
        2      4822  SOLID187      0.062   0.000013
        3       297  SOLID187      0.000   0.000000
        4       297  SOLID187      0.000   0.000000
        5       297  SOLID187      0.000   0.000000
        6       297  SOLID187      0.016   0.000053
        7       297  SOLID187      0.016   0.000053
        8       297  SOLID187      0.000   0.000000
        9       297  SOLID187      0.000   0.000000
       10       123  CONTA174      0.000   0.000000
       12       117  CONTA174      0.000   0.000000
       14       126  CONTA174      0.000   0.000000
       16       122  CONTA174      0.000   0.000000
       18       121  CONTA174      0.000   0.000000
       20       117  CONTA174      0.000   0.000000
       22       123  CONTA174      0.000   0.000000
       24        65  CONTA174      0.000   0.000000
       26        71  CONTA174      0.000   0.000000
       28        68  CONTA174      0.000   0.000000
       30        66  CONTA174      0.000   0.000000
       32        70  CONTA174      0.016   0.000223
       34        70  CONTA174      0.000   0.000000
       36        82  CONTA174      0.000   0.000000
       38      1080  SURF154       0.016   0.000014
 *** LOAD STEP     1   SUBSTEP     1  COMPLETED.    CUM ITER =      1
 *** TIME =   1.00000         TIME INC =   1.00000      NEW TRIANG MATRIX

 *** NOTE ***                            CP =      15.859   TIME= 23:26:00
 During this loadstep the PCG iterative solver took more than 1000       
 iterations to solve the system of equations.  In the future it may be   
 more efficient to choose a direct solver, such as the SPARSE solver,    
 for this analysis.                                                      


 *** ANSYS BINARY FILE STATISTICS
  BUFFER SIZE USED= 16384
        9.312 MB WRITTEN ON ELEMENT SAVED DATA FILE: file0.esav
       10.125 MB WRITTEN ON RESULTS FILE: file0.rst
 *************** Write FE CONNECTORS *********

 WRITE OUT CONSTRAINT EQUATIONS TO FILE= file.ce                                                                                                                                                                                                                                                             
 ****************************************************
 *************** FINISHED SOLVE FOR LS 1 *************

 *GET  _WALLASOL  FROM  ACTI  ITEM=TIME WALL  VALUE=  23.4336111    

 PRINTOUT RESUMED BY /GOP

 *GET  _PCGITER  FROM  ACTI  ITEM=SOLU CGIT  VALUE=  1003.00000    

 FINISH SOLUTION PROCESSING


 ***** ROUTINE COMPLETED *****  CP =        16.172



 *** ANSYS - ENGINEERING ANALYSIS SYSTEM  RELEASE 2021 R1          21.1     ***
 DISTRIBUTED ANSYS Mechanical Enterprise Academic Student      

 00000000  VERSION=WINDOWS x64   23:26:01  MAR 04, 2021 CP=     16.172

 bearing-stiffness--Static Structural (A5)                                     



          ***** ANSYS RESULTS INTERPRETATION (POST1) *****

 *** NOTE ***                            CP =      16.172   TIME= 23:26:01
 Reading results into the database (SET command) will update the current 
 displacement and force boundary conditions in the database with the     
 values from the results file for that load set.  Note that any          
 subsequent solutions will use these values unless action is taken to    
 either SAVE the current values or not overwrite them (/EXIT,NOSAVE).    

 Set Encoding of XML File to:ISO-8859-1

 Set Output of XML File to:
     PARM,     ,     ,     ,     ,     ,     ,     ,     ,     ,     ,     ,
         ,     ,     ,     ,     ,     ,     ,

 DATABASE WRITTEN ON FILE  parm.xml                                                                                                                                                                                                                                                            

 EXIT THE ANSYS POST1 DATABASE PROCESSOR


 ***** ROUTINE COMPLETED *****  CP =        16.172



 PRINTOUT RESUMED BY /GOP

 *GET  _WALLDONE  FROM  ACTI  ITEM=TIME WALL  VALUE=  23.4336111    

 PARAMETER _PREPTIME =     0.000000000    

 PARAMETER _SOLVTIME =     16.00000000    

 PARAMETER _POSTTIME =     0.000000000    

 PARAMETER _TOTALTIM =     16.00000000    

 *GET  _DLBRATIO  FROM  ACTI  ITEM=SOLU DLBR  VALUE=  1.01253678    

 *GET  _COMBTIME  FROM  ACTI  ITEM=SOLU COMB  VALUE= 0.149293200    
 --- Total number of nodes = 50865
 --- Total number of elements = 32475
 --- Element load balance ratio = 1.01253678
 --- Time to combine distributed files = 0.1492932

 EXIT ANSYS WITHOUT SAVING DATABASE


 NUMBER OF WARNING MESSAGES ENCOUNTERED=          3
 NUMBER OF ERROR   MESSAGES ENCOUNTERED=          0

+--------- D I S T R I B U T E D   A N S Y S   S T A T I S T I C S ------------+

Release: 2021 R1            Build: 21.1       Update: UP20201109   Platform: WINDOWS x64 
Date Run: 03/04/2021   Time: 23:26     Process ID: 4448
Operating System: Windows 10  (Build: 19042)

Processor Model: Intel(R) Core(TM) i7-7500U CPU @ 2.70GHz

Compiler: Intel(R) FORTRAN Compiler Version 19.0.0  (Build: 20190206)
          Intel(R) C/C++ Compiler Version 19.0.0  (Build: 20190206)
          Intel(R) Math Kernel Library Version 2020.0.0 Product Build 20191125

Number of machines requested            :    1
Total number of cores available         :    4
Number of physical cores available      :    2
Number of processes requested           :    2
Number of threads per process requested :    1
Total number of cores requested         :    2 (Distributed Memory Parallel)               
MPI Type: INTELMPI
MPI Version: Intel(R) MPI Library 2018 Update 3 for Windows* OS


GPU Acceleration: Not Requested

Job Name: file0
Input File: dummy.dat

  Core                Machine Name   Working Directory
 -----------------------------------------------------
     0             DESKTOP-9SHO0AQ   C:\Users\vinig\Desktop\codes\TCC-assets\programas\ansys-bearing\_ProjectScratch\ScrB469
     1             DESKTOP-9SHO0AQ   C:\Users\vinig\Desktop\codes\TCC-assets\programas\ansys-bearing\_ProjectScratch\ScrB469
 
Latency time from master to core     1 =    2.561 microseconds
 
Communication speed from master to core     1 =  3347.74 MB/sec

Total CPU time for main thread                    :       15.6 seconds
Total CPU time summed for all threads             :       16.2 seconds

Elapsed time spent obtaining a license            :        0.5 seconds
Elapsed time spent pre-processing model (/PREP7)  :        0.4 seconds
Elapsed time spent solution - preprocessing       :        0.9 seconds
Elapsed time spent computing solution             :       14.3 seconds
Elapsed time spent solution - postprocessing      :        0.1 seconds
Elapsed time spent post-processing model (/POST1) :        0.0 seconds
 
Equation solver used                              :            PCG (symmetric)
Equation solver computational rate                :        4.3 Gflops

Maximum total memory used                         :      319.0 MB
Maximum total memory allocated                    :     3136.0 MB
Total physical memory available                   :          8 GB

Total amount of I/O written to disk               :        0.1 GB
Total amount of I/O read from disk                :        0.0 GB

+------ E N D   D I S T R I B U T E D   A N S Y S   S T A T I S T I C S -------+


 *---------------------------------------------------------------------------*
 |                                                                           |
 |                       DISTRIBUTED ANSYS RUN COMPLETED                     |
 |                                                                           |
 |---------------------------------------------------------------------------|
 |                                                                           |
 | Ansys 2021 R1               Build 21.1         UP20201109     WINDOWS x64 |
 |                                                                           |
 |---------------------------------------------------------------------------|
 |                                                                           |
 | Database Requested(-db)  1024 MB    Scratch Memory Requested      1024 MB |
 | Maximum Database Used      40 MB    Maximum Scratch Memory Used    156 MB |
 |                                                                           |
 |---------------------------------------------------------------------------|
 |                                                                           |
 |        CP Time      (sec) =         16.234       Time  =  23:26:01        |
 |        Elapsed Time (sec) =         18.000       Date  =  03/04/2021      |
 |                                                                           |
 *---------------------------------------------------------------------------*
