
 ANSYS Mechanical Enterprise                       


 *------------------------------------------------------------------*
 |                                                                  |
 |   W E L C O M E   T O   T H E   A N S Y S (R)  P R O G R A M     |
 |                                                                  |
 *------------------------------------------------------------------*




 ***************************************************************
 *            ANSYS Release 18.1     LEGAL NOTICES             *
 ***************************************************************
 *                                                             *
 * Copyright 2017 SAS IP, Inc.  All rights reserved.           *
 * Unauthorized use, distribution or duplication is            *
 * prohibited.                                                 *
 *                                                             *
 * Ansys is a registered trademark of ANSYS, Inc. or its       *
 * subsidiaries in the United States or other countries.       *
 * See the ANSYS, Inc. online documentation or the ANSYS, Inc. *
 * documentation CD or online help for the complete Legal      *
 * Notice.                                                     *
 *                                                             *
 ***************************************************************
 *                                                             *
 * THIS ANSYS SOFTWARE PRODUCT AND PROGRAM DOCUMENTATION       *
 * INCLUDE TRADE SECRETS AND CONFIDENTIAL AND PROPRIETARY      *
 * PRODUCTS OF ANSYS, INC., ITS SUBSIDIARIES, OR LICENSORS.    *
 * The software products and documentation are furnished by    *
 * ANSYS, Inc. or its subsidiaries under a software license    *
 * agreement that contains provisions concerning               *
 * non-disclosure, copying, length and nature of use,          *
 * compliance with exporting laws, warranties, disclaimers,    *
 * limitations of liability, and remedies, and other           *
 * provisions.  The software products and documentation may be *
 * used, disclosed, transferred, or copied only in accordance  *
 * with the terms and conditions of that software license      *
 * agreement.                                                  *
 *                                                             *
 * ANSYS, Inc. is a UL registered                              *
 * ISO 9001:2008 company.                                      *
 *                                                             *
 ***************************************************************
 *                                                             *
 * This product is subject to U.S. laws governing export and   *
 * re-export.                                                  *
 *                                                             *
 * For U.S. Government users, except as specifically granted   *
 * by the ANSYS, Inc. software license agreement, the use,     *
 * duplication, or disclosure by the United States Government  *
 * is subject to restrictions stated in the ANSYS, Inc.        *
 * software license agreement and FAR 12.212 (for non-DOD      *
 * licenses).                                                  *
 *                                                             *
 ***************************************************************

 Release 18.1
     
 Point Releases and Patches installed:   
     
 ANSYS, Inc. Products Release 18.1   
 ANSYS Mechanical Products Release 18.1  
 ANSYS Autodyn Release 18.1  
 ANSYS LS-DYNA Release 18.1  
 ANSYS AIM Release 18.1  
 ANSYS CFX (includes ANSYS CFD-Post) Release 18.1
 ANSYS Fluent (includes ANSYS CFD-Post) Release 18.1 
 ANSYS TurboGrid Release 18.1
 ANSYS FENSAP-ICE Release 18.1   
 ANSYS Polyflow (includes ANSYS CFD-Post) Release 18.1   
 ANSYS CFD-Post only Release 18.1
 ANSYS Forte Release 18.1
 ANSYS Chemkin Release 18.1  
 ANSYS ICEM CFD Release 18.1 
 ANSYS Aqwa Release 18.1 
 ANSYS Viewer Release 18.1   
 ANSYS Icepak (includes ANSYS CFD-Post) Release 18.1 
 AutoCAD Release 18.1
 ACIS Release 18.1   
 Catia, Version 4 Release 18.1   
 Catia, Version 6 Release 18.1   
 Creo Elements/Direct Modeling Release 18.1  
 Inventor Release 18.1   
 JTOpen Release 18.1 
 NX Release 18.1 
 Parasolid Release 18.1  
 Creo Parametric Release 18.1
 Solid Edge Release 18.1 
 SolidWorks Release 18.1 
 ANSYS, Inc. License Manager Release 18.1


          *****  ANSYS COMMAND LINE ARGUMENTS  *****
  BATCH MODE REQUESTED (-b)    = NOLIST
  INPUT FILE COPY MODE (-c)    = COPY
  DISTRIBUTED MEMORY PARALLEL REQUESTED
       2 PARALLEL PROCESSES REQUESTED WITH SINGLE THREAD PER PROCESS
    TOTAL OF     2 CORES REQUESTED
  MPI OPTION                   = INTELMPI
  INPUT FILE NAME              = C:\Users\vinig\OneDrive\Ambiente de Trabalho\Vinícius\TCC\Computacional\ANSYS\_ProjectScratch\Scr1F32\dummy.dat
  OUTPUT FILE NAME             = C:\Users\vinig\OneDrive\Ambiente de Trabalho\Vinícius\TCC\Computacional\ANSYS\_ProjectScratch\Scr1F32\solve.out
  START-UP FILE MODE           = NOREAD
  STOP FILE MODE               = NOREAD

 RELEASE= Release 18.1         BUILD= 18.1      UP20170403   VERSION=WINDOWS x64 
 CURRENT JOBNAME=file0  14:45:55  JUN 07, 2019 CP=      0.328


 PARAMETER _DS_PROGRESS =     999.0000000    

 /INPUT FILE= ds.dat  LINE=       0



 *** NOTE ***                            CP =       0.469   TIME= 14:45:56
 The /CONFIG,NOELDB command is not valid in a Distributed ANSYS          
 solution.  Command is ignored.                                          

 *GET  _WALLSTRT  FROM  ACTI  ITEM=TIME WALL  VALUE=  14.7655556    

 TITLE= 
 simulacao_FE--Modal (A5)                                                      

  ACT Extensions:
      MechanicalDropTest, 2.0
      f0fd899f-9d88-4f46-8cf1-36bf5c218d65, wbex
  

 SET PARAMETER DIMENSIONS ON  _WB_PROJECTSCRATCH_DIR
  TYPE=STRI  DIMENSIONS=      248        1        1

 PARAMETER _WB_PROJECTSCRATCH_DIR(1) = C:\Users\vinig\OneDrive\Ambiente de Trabalho\Vinícius\TCC\Computacional\ANSYS\_ProjectScratch\Scr1F32\

 SET PARAMETER DIMENSIONS ON  _WB_SOLVERFILES_DIR
  TYPE=STRI  DIMENSIONS=      248        1        1

 PARAMETER _WB_SOLVERFILES_DIR(1) = C:\Users\vinig\OneDrive\Ambiente de Trabalho\Vinícius\TCC\Computacional\ANSYS\simulacao_FE_files\dp0\global\MECH\SYS\Contact Tool\

 SET PARAMETER DIMENSIONS ON  _WB_USERFILES_DIR
  TYPE=STRI  DIMENSIONS=      248        1        1

 PARAMETER _WB_USERFILES_DIR(1) = C:\Users\vinig\OneDrive\Ambiente de Trabalho\Vinícius\TCC\Computacional\ANSYS\simulacao_FE_files\user_files\
 --- Data in consistent NMM units. See Solving Units in the help system for more

 MPA UNITS SPECIFIED FOR INTERNAL    
  LENGTH      = MILLIMETERS (mm)
  MASS        = TONNE (Mg)
  TIME        = SECONDS (sec)
  TEMPERATURE = CELSIUS (C)
  TOFFSET     = 273.0
  FORCE       = NEWTON (N)
  HEAT        = MILLIJOULES (mJ)

 INPUT  UNITS ARE ALSO SET TO MPA 

 *** ANSYS - ENGINEERING ANALYSIS SYSTEM  RELEASE Release 18.1     18.1     ***
 DISTRIBUTED ANSYS Mechanical Enterprise                       

 00000000  VERSION=WINDOWS x64   14:45:56  JUN 07, 2019 CP=      0.469

 simulacao_FE--Modal (A5)                                                      



          ***** ANSYS ANALYSIS DEFINITION (PREP7) *****
 *********** Nodes for the whole assembly ***********
 *********** Nodes for all Remote Points ***********
 *********** Elements for Body 1 "Disco" ***********
 *********** Elements for Body 2 "Line Body" ***********
 *********** Send User Defined Coordinate System(s) ***********
 *********** Send Materials ***********
 *********** Send Beam Properties ***********
 *********** Create Contact "Bonded - Line Body To Disco" ***********
             Real Constant Set For Above Contact Is 4 & 3


 ***** ROUTINE COMPLETED *****  CP =         0.531


 --- Number of total nodes = 2551
 --- Number of contact elements = 16
 --- Number of spring elements = 0
 --- Number of bearing elements = 0
 --- Number of solid elements = 453
 --- Number of condensed parts = 0
 --- Number of total elements = 471

 *GET  _WALLBSOL  FROM  ACTI  ITEM=TIME WALL  VALUE=  14.7655556    

 *****  ANSYS SOLUTION ROUTINE  *****

 DO NOT SAVE ANY RESTART FILES AT ALL

 ERASE THE CURRENT DATABASE OUTPUT CONTROL TABLE.


 WRITE ALL  ITEMS TO THE DATABASE WITH A FREQUENCY OF NONE
   FOR ALL APPLICABLE ENTITIES

 WRITE NSOL ITEMS TO THE DATABASE WITH A FREQUENCY OF LAST
   FOR ALL APPLICABLE ENTITIES

 WRITE STRS ITEMS TO THE DATABASE WITH A FREQUENCY OF LAST
   FOR ALL APPLICABLE ENTITIES

 NLDIAG: Nonlinear diagnostics CONT option is set to ON. 
         Writing frequency : each ITERATION.

 CONTACT INFORMATION PRINTOUT LEVEL       1

 SELECT       FOR ITEM=ENAM COMPONENT=    
  IN RANGE       169 TO        177 STEP          1

         18  ELEMENTS (OF        471  DEFINED) SELECTED BY  ESEL  COMMAND.

 SELECT      ALL NODES HAVING ANY ELEMENT IN ELEMENT SET.

       66 NODES (OF     2551  DEFINED) SELECTED FROM
       18 SELECTED ELEMENTS BY NSLE COMMAND.

 SELECT      ALL ELEMENTS HAVING ANY NODE IN NODAL SET.

       37 ELEMENTS (OF      471  DEFINED) SELECTED FROM
       66 SELECTED NODES BY  ESLN COMMAND.

 SELECT      ALL NODES HAVING ANY ELEMENT IN ELEMENT SET.

      159 NODES (OF     2551  DEFINED) SELECTED FROM
       37 SELECTED ELEMENTS BY NSLE COMMAND.

 CHECK INITIAL OPEN/CLOSED STATUS OF SELECTED CONTACT ELEMENTS
      AND POST INITIAL CONTACT STATUS

 *** SELECTION OF ELEMENT TECHNOLOGIES FOR APPLICABLE ELEMENTS ***
      --- GIVE SUGGESTIONS AND RESET THE KEY OPTIONS ---

 ELEMENT TYPE    1 IS SOLID186. KEYOPT(2) IS ALREADY SET AS SUGGESTED AND NO
 RESETTING IS NEEDED.

 ELEMENT TYPE    2 IS BEAM188 . KEYOPT(3)=2 IS ALWAYS SUGGESTED.  KEYOPT(3) HAS BEEN RESET
  KEYOPT(1-12)=    0    0    2    0    0    0    0    0    0    0    0    0

 ELEMENT TYPE    2 IS BEAM188 . KEYOPT(15) IS ALREADY SET AS SUGGESTED AND NO
 RESETTING IS NEEDED.



 *** NOTE ***                            CP =       0.531   TIME= 14:45:56
 Internal nodes from 2552 to 2554 are created.                           
 3 internal nodes are used for quadratic and/or cubic options of         
 BEAM188, PIPE288, and/or SHELL208.                                      

 SOLUTION MONITORING INFO IS WRITTEN TO FILE= file.mntr                                                                                                                                                                                                                                                           

 *** NOTE ***                            CP =       0.562   TIME= 14:45:56
 Deformable-deformable contact pair identified by real constant set 3    
 and contact element type 3 has been set up.                             
 Node-surface contact pair is defined
 Contact force based contact model
 Contact algorithm: Augmented Lagrange method
 Contact detection at: nodal point (normal to target surface)
 Contact stiffness factor FKN                  10.000    
 The resulting initial contact stiffness      0.19833E+09
 Default penetration tolerance factor FTOLN   0.10000    
 The resulting penetration tolerance          0.49583    
 Default opening contact stiffness OPSF will be used.
 Default tangent stiffness factor FKT          1.0000    
 Default elastic slip factor SLTOL            0.50000E-02
 The resulting elastic slip tolerance         0.24792E-01
 Update contact stiffness at each iteration
 Default Max. friction stress TAUMAX          0.10000E+21
 Average contact surface length                4.9583    
 Average contact pair depth                    4.9583    
 User defined pinball region PINB              15.000    
 Default target edge extension factor TOLS     10.000    
 Initial penetration/gap is excluded.
 Bonded contact (always) is defined.

 *** NOTE ***                            CP =       0.562   TIME= 14:45:56
 Min.  Initial gap 6.36357626 was detected between contact element 465   
 and target element 475.                                                 
 The gap is closed due to initial settings.                              
 *WARNING*: The initial penetration/gap is relatively large.  Bonded/no  
 separation option may cause an accuracy issue.  Switch to MPC           
 algorithm or you may use the CNCHECK,ADJUST/MORPH command to move the   
 contact nodes towards the target surface.                               
 ****************************************
  
  
  

 *** NOTE ***                            CP =       0.562   TIME= 14:45:56
 Predictor is ON by default for structural elements with rotational      
 degrees of freedom.  Use the PRED,OFF command to turn the predictor     
 OFF if it adversely affects the convergence.                            

  
 *************************************************
  SUMMARY FOR CONTACT PAIR IDENTIFIED BY REAL CONSTANT SET           3
 Max.  Penetration of 0 has been detected between contact element 464    
 and target element 472.                                                 
  
 Max.  Geometrical gap of 6.37499993 has been detected between contact   
 element 464 and target element 472.                                     
 For total 2 contact elements, there are 2 elements are in contact.      
 There are 2 elements are in sticking.                                   
 Contacting area 2.                                                      
 Max.  Pinball distance 15.                                              
 One of the contact searching regions contains at least 16 target        
 elements.                                                               
 Max.  Pressure/force 8.734371249E-07.                                   
 Max.  Normal stiffness 198333333.                                       
 Min.  Normal stiffness 198333333.                                       
 Max.  Tangential stiffness 148750000.                                   
 Min.  Tangential stiffness 148750000.                                   
 *************************************************



            **** CENTER OF MASS, MASS, AND MASS MOMENTS OF INERTIA ****

  CALCULATIONS ASSUME ELEMENT MASS AT ELEMENT CENTROID

  TOTAL MASS =  0.20859E-04

                           MOM. OF INERTIA         MOM. OF INERTIA
  CENTER OF MASS            ABOUT ORIGIN        ABOUT CENTER OF MASS

  XC = -0.57461          IXX =   0.1450E-02      IXX =   0.9099E-03
  YC =  0.94348          IYY =   0.1426E-02      IYY =   0.8976E-03
  ZC =   4.9982          IZZ =   0.1572E-02      IZZ =   0.1547E-02
                         IXY =  -0.4844E-04      IXY =  -0.5975E-04
                         IYZ =  -0.9834E-04      IYZ =   0.2535E-07
                         IZX =   0.6007E-04      IZX =   0.1648E-06


  *** MASS SUMMARY BY ELEMENT TYPE ***

  TYPE      MASS
     1  0.208591E-04

   *** ELEMENT MATRIX FORMULATION TIMES
     TYPE    NUMBER   ENAME      TOTAL CP  AVE CP

        1        16  SOLID186      0.000   0.000000
        2         3  BEAM188       0.000   0.000000
        3         2  CONTA175      0.000   0.000000
        4        16  TARGE170      0.000   0.000000
 Time at end of element matrix formulation CP = 0.5625.                  

   *** ELEMENT RESULT CALCULATION TIMES
     TYPE    NUMBER   ENAME      TOTAL CP  AVE CP

        3         2  CONTA175      0.000   0.000000

   *** NODAL LOAD CALCULATION TIMES
     TYPE    NUMBER   ENAME      TOTAL CP  AVE CP

        3         2  CONTA175      0.000   0.000000

 FINISH SOLUTION PROCESSING


 ***** ROUTINE COMPLETED *****  CP =         0.609



 *GET  _WALLASOL  FROM  ACTI  ITEM=TIME WALL  VALUE=  14.7655556    

 PRINTOUT RESUMED BY /GOP

 *GET  _WALLDONE  FROM  ACTI  ITEM=TIME WALL  VALUE=  14.7655556    

 PARAMETER _PREPTIME =     0.000000000    

 PARAMETER _SOLVTIME =     0.000000000    

 PARAMETER _POSTTIME =     0.000000000    

 PARAMETER _TOTALTIM =     0.000000000    

 EXIT ANSYS WITHOUT SAVING DATABASE


 NUMBER OF WARNING MESSAGES ENCOUNTERED=          0
 NUMBER OF ERROR   MESSAGES ENCOUNTERED=          0

+--------- D I S T R I B U T E D   A N S Y S   S T A T I S T I C S ------------+

Release: Release 18.1       Build: 18.1       Update: UP20170403   Platform: WINDOWS x64 
Date Run: 06/07/2019   Time: 14:45     Process ID: 12928
Operating System: Windows 10  (Build: 17134)

Processor Model: Intel(R) Core(TM) i7-7500U CPU @ 2.70GHz

Compiler: Intel(R) FORTRAN Compiler Version 15.0.7  (Build: 20160518)
          Intel(R) C/C++ Compiler Version 15.0.7  (Build: 20160518)
          Intel(R) Math Kernel Library Version 11.3.3 Product Build 20160413

Number of machines requested            :    1
Total number of cores available         :    4
Number of physical cores available      :    2
Number of processes requested           :    2
Number of threads per process requested :    1
Total number of cores requested         :    2 (Distributed Memory Parallel)               
MPI Type: INTELMPI
MPI Version: Intel(R) MPI Library 5.1.3 for Windows* OS


GPU Acceleration: Not Requested

Job Name: file0
Input File: dummy.dat

  Core                Machine Name   Working Directory
  ----------------------------------------------------
     0             LAPTOP-C4CLIDF2   C:\Users\vinig\OneDrive\Ambiente de Trabalho\Vinícius\TCC\Computacional\ANSYS\_ProjectScratch\Scr1F32
     1             LAPTOP-C4CLIDF2   C:\Users\vinig\OneDrive\Ambiente de Trabalho\Vinícius\TCC\Computacional\ANSYS\_ProjectScratch\Scr1F32
 
Latency time from master to core    1 =    1.861 microseconds
 
Communication speed from master to core    1 =  4433.09 MB/sec

Total CPU time for main thread                    :        0.7 seconds
Total CPU time summed for all threads             :        0.9 seconds

Elapsed time spent pre-processing model (/PREP7)  :        0.0 seconds
Elapsed time spent solution - preprocessing       :        0.0 seconds
Elapsed time spent computing solution             :        0.0 seconds
Elapsed time spent solution - postprocessing      :        0.0 seconds
Elapsed time spent post-processing model (/POST1) :        0.0 seconds
 
Equation solver used                              :            Sparse (symmetric)

Maximum total memory used                         :       35.0 MB
Maximum total memory allocated                    :     3136.0 MB
Total physical memory available                   :          8 GB

+------ E N D   D I S T R I B U T E D   A N S Y S   S T A T I S T I C S -------+


 *---------------------------------------------------------------------------*
 |                                                                           |
 |                       DISTRIBUTED ANSYS RUN COMPLETED                     |
 |                                                                           |
 |---------------------------------------------------------------------------|
 |                                                                           |
 | Ansys Release 18.1          Build 18.1         UP20170403     WINDOWS x64 |
 |                                                                           |
 |---------------------------------------------------------------------------|
 |                                                                           |
 | Database Requested(-db)  1024 MB    Scratch Memory Requested      1024 MB |
 | Maximum Database Used       2 MB    Maximum Scratch Memory Used     28 MB |
 |                                                                           |
 |---------------------------------------------------------------------------|
 |                                                                           |
 |        CP Time      (sec) =          0.859       Time  =  14:45:57        |
 |        Elapsed Time (sec) =          4.000       Date  =  06/07/2019      |
 |                                                                           |
 *---------------------------------------------------------------------------*
